version 3
run General-0-20250727-14:10:10-854952
attr configname General
attr datetime 20250727-14:10:10
attr datetimef 20250727-141010
attr experiment General
attr inifile omnetpp.ini
attr iterationvars ""
attr iterationvarsd ""
attr iterationvarsf ""
attr measurement ""
attr network HandoverShowcase
attr processid 854952
attr repetition 0
attr replication #0
attr resultdir results
attr runnumber 0
attr seedset 0
config image-path ../../../images
config network HandoverShowcase
config sim-time-limit 100s
config **.mgmt.numChannels 5
config **.ap1.wlan[*].mgmt.ssid "\"AP1\""
config **.ap2.wlan[*].mgmt.ssid "\"AP2\""
config **.ap*.wlan[*].mgmt.beaconInterval 100ms
config *.host1.mobility.typename LinearMobility
config *.host1.mobility.speed 10mps
config *.host1.mobility.initialMovementHeading 0deg
config *.host1.mobility.updateInterval 100ms
config *.host1.mobility.constraintAreaMinX 40m
config *.host1.mobility.constraintAreaMaxX 600m
config **.analogModel.ignorePartialInterference true
config **.ap1.wlan[*].radio.channelNumber 2
config **.ap2.wlan[*].radio.channelNumber 3
config **.host1.wlan[*].radio.channelNumber 0
config **.radio.transmitter.power 2.0mW
config **.networkConfiguratorModule "\"\""
config **.wlan[*].agent.activeScan true
config **.wlan[*].agent.defaultSsid "\"\""
config **.wlan[*].agent.channelsToScan "\"\""
config **.wlan[*].agent.probeDelay 0.1s
config **.wlan[*].agent.minChannelTime 0.15s
config **.wlan[*].agent.maxChannelTime 0.3s
config *.host1.numUdpApps 1
config *.host1.udpApp[0].typename UDPBasicApp
config *.host1.udpApp[0].destAddresses "\"host2\""
config *.host1.udpApp[0].destPort 1000
config *.host1.udpApp[0].messageLength 1000B
config *.host1.udpApp[0].sendInterval 0.1s
config *.host1.udpApp[0].startTime 1s
config *.host1.udpApp[0].stopTime 99s
config *.host1.udpApp[0].verbose true
config *.host1.udpApp[0].packetName "\"UDPData\""
config *.host1.udpApp[0].numPk 1000
config *.host1.udpApp[0].messageLength exponential(1000B)
config *.host2.numUdpApps 1
config *.host2.udpApp[0].typename UDPSink
config *.host2.udpApp[0].localPort 1000
config *.host2.udpApp[0].verbose true
config *.host1.numTcpApps 1
config *.host1.tcpApp[0].typename TcpBasicClient
config *.host1.tcpApp[0].connectAddress "\"host2\""
config *.host1.tcpApp[0].connectPort 2000
config *.host1.tcpApp[0].startTime 1s
config *.host1.tcpApp[0].stopTime 99s
config *.host1.tcpApp[0].verbose true
config *.host1.tcpApp[0].messageLength 1000B
config *.host1.tcpApp[0].sendBytes 1000000
config *.host2.numTcpApps 1
config *.host2.tcpApp[0].typename TcpBasicServer
config *.host2.tcpApp[0].localPort 2000
config *.host2.tcpApp[0].verbose true
config **.verbose true
config **.debug true
config *.host1.udpApp[0].verbose true
config *.host1.tcpApp[0].verbose true
config *.host2.udpApp[0].verbose true
config *.host2.tcpApp[0].verbose true
config *.host1.udpApp[0].recordPacketsSent true
config *.host1.udpApp[0].recordBytesSent true
config *.host1.udpApp[0].recordPacketsReceived true
config *.host1.udpApp[0].recordBytesReceived true
config *.host2.udpApp[0].recordPacketsReceived true
config *.host2.udpApp[0].recordBytesReceived true
config *.host1.tcpApp[0].recordPacketsSent true
config *.host1.tcpApp[0].recordBytesSent true
config *.host1.tcpApp[0].recordPacketsReceived true
config *.host1.tcpApp[0].recordBytesReceived true
config *.host2.tcpApp[0].recordPacketsReceived true
config *.host2.tcpApp[0].recordBytesReceived true
config *.host1.wlan[*].agent.recordHandoverAttempts true
config *.host1.wlan[*].agent.recordHandoverSuccesses true
config *.host1.wlan[*].agent.recordHandoverFailures true
config *.host1.wlan[*].agent.recordHandoverDuration true
config *.host1.wlan[*].agent.recordHandoverLatency true
config *.host1.wlan[*].radio.recordSignalStrength true
config *.host1.wlan[*].radio.recordSNR true
config *.host1.wlan[*].radio.recordBitErrorRate true
config *.host1.wlan[*].radio.recordPacketErrorRate true
config *.host1.wlan[*].mac.recordPacketLoss true
config *.host1.wlan[*].mac.recordRetries true
config *.host1.wlan[*].mac.recordRetransmissions true
config *.visualizer.physicalLinkVisualizer.displayLinks true
config *.ap*.wlan[*].radio.displayCommunicationRange true
config *.host1.udpApp[*].statistic-recording "\"vector\""
config *.host2.udpApp[*].statistic-recording "\"vector\""
config *.host1.tcpApp[*].statistic-recording "\"vector\""
config *.host2.tcpApp[*].statistic-recording "\"vector\""
config *.host1.wlan[*].agent.statistic-recording "\"vector\""
config *.host1.wlan[*].radio.statistic-recording "\"vector\""
config *.host1.wlan[*].mac.statistic-recording "\"vector\""

vector 0 HandoverShowcase.host1.lo[0].lo rcvdPkFromHl:vector(packetBytes) ETV
attr interpolationmode none
attr recordingmode vector(packetBytes)
attr source packetReceivedFromUpper
attr title "packets received from higher layer, packetBytes"
vector 1 HandoverShowcase.host1.lo[0].lo passedUpPk:vector(packetBytes) ETV
attr interpolationmode none
attr recordingmode vector(packetBytes)
attr source packetSentToUpper
attr title "packets passed to higher layer, packetBytes"
vector 2 HandoverShowcase.host1.lo[0] packetDropInterfaceDown:vector(packetBytes) ETV
attr interpolationmode none
attr recordingmode vector(packetBytes)
attr source packetDropReasonIsInterfaceDown(packetDropped)
attr title "packet drops: interface down, packetBytes"
vector 3 HandoverShowcase.host1.lo[0] packetDropNoCarrier:vector(packetBytes) ETV
attr interpolationmode none
attr recordingmode vector(packetBytes)
attr source packetDropReasonIsNoCarrier(packetDropped)
attr title "packet drops: no carrier, packetBytes"
vector 4 HandoverShowcase.host1.wlan[0].agent sentRequest:vector ETV
attr recordingmode vector
attr title "sent requests"
vector 5 HandoverShowcase.host1.wlan[0].agent acceptConfirm:vector ETV
attr recordingmode vector
attr title "accepted confirms"
vector 6 HandoverShowcase.host1.wlan[0].agent dropConfirm:vector ETV
attr recordingmode vector
attr title "dropped confirms"
vector 7 HandoverShowcase.host1.wlan[0].mac.dcf.channelAccess.pendingQueue queueLength:vector ETV
attr autoWarmupFilter false
attr interpolationmode sample-hold
attr recordingmode vector
attr source "warmup(atomic(constant0(packetPushEnded) + count(packetPushStarted) - count(packetPulled) - count(packetRemoved) - count(packetDropped)))"
attr title "queue length"
attr unit pk
vector 8 HandoverShowcase.host1.wlan[0].mac.dcf.channelAccess.pendingQueue queueBitLength:vector ETV
attr autoWarmupFilter false
attr interpolationmode sample-hold
attr recordingmode vector
attr source "warmup(atomic(constant0(packetPushEnded) + sum(packetLength(packetPushStarted)) - sum(packetLength(packetPulled)) - sum(packetLength(packetRemoved)) - sum(packetLength(packetDropped))))"
attr title "queue bit length"
attr unit b
vector 9 HandoverShowcase.host1.wlan[0].mac.dcf.channelAccess.pendingQueue queueingTime:vector ETV
attr interpolationmode none
attr recordingmode vector
attr source queueingTime(packetPulled)
attr title "queueing times"
attr unit s
vector 10 HandoverShowcase.host1.wlan[0].mac.dcf.channelAccess.pendingQueue incomingPacketLengths:vector ETV
attr interpolationmode none
attr recordingmode vector
attr source packetLength(packetPushStarted)
attr title "incoming packet lengths"
attr unit b
vector 11 HandoverShowcase.host1.wlan[0].mac.dcf.channelAccess.pendingQueue incomingDataRate:vector ETV
attr interpolationmode linear
attr recordingmode vector
attr source throughput(packetPushStarted)
attr title "incoming datarate"
attr unit bps
vector 12 HandoverShowcase.host1.wlan[0].mac.dcf.channelAccess.pendingQueue outgoingPacketLengths:vector ETV
attr interpolationmode none
attr recordingmode vector
attr source packetLength(packetPulled)
attr title "outgoing packet lengths"
attr unit b
vector 13 HandoverShowcase.host1.wlan[0].mac.dcf.channelAccess.pendingQueue outgoingDataRate:vector ETV
attr interpolationmode linear
attr recordingmode vector
attr source throughput(packetPulled)
attr title "outgoing datarate"
attr unit bps
vector 14 HandoverShowcase.host1.wlan[0].mac.dcf.channelAccess.pendingQueue droppedPacketLengthsQueueOverflow:vector ETV
attr interpolationmode none
attr recordingmode vector
attr source packetLength(packetDropReasonIsQueueOverflow(packetDropped))
attr title "dropped packet lengths: queue overflow"
attr unit b
vector 15 HandoverShowcase.host1.wlan[0].mac.dcf.channelAccess.pendingQueue flowQueueingTime:vector ETV
attr interpolationmode none
attr recordingmode vector
attr source queueingTime(demuxFlow(packetPulled))
attr title "flow queueing times"
attr unit s
vector 16 HandoverShowcase.host1.wlan[0].mac.dcf.channelAccess.pendingQueue flowIncomingDataRate:vector ETV
attr interpolationmode linear
attr recordingmode vector
attr source throughput(flowPacketLength(demuxFlow(packetPushStarted)))
attr title "flow specific incoming data rate"
attr unit bps
vector 17 HandoverShowcase.host1.wlan[0].mac.dcf.channelAccess.pendingQueue flowOutgoingDataRate:vector ETV
attr interpolationmode linear
attr recordingmode vector
attr source throughput(flowPacketLength(demuxFlow(packetPulled)))
attr title "flow specific outgoing data rate"
attr unit bps
vector 18 HandoverShowcase.host1.wlan[0].mac.dcf.channelAccess.inProgressFrames queueingTime:vector ETV
attr interpolationmode none
attr recordingmode vector
attr source queueingTime(packetDequeued)
attr title "queueing times"
vector 19 HandoverShowcase.host1.wlan[0].mac.dcf.channelAccess.inProgressFrames queueLength:vector ETV
attr autoWarmupFilter false
attr interpolationmode sample-hold
attr recordingmode vector
attr source "warmup(count(packetEnqueued) - count(packetDequeued))"
attr title "queue length"
vector 20 HandoverShowcase.host1.wlan[0].mac.dcf.channelAccess.contention backoffPeriodGenerated:vector ETV
attr interpolationmode none
attr recordingmode vector
attr title "backoff periods"
vector 21 HandoverShowcase.host1.wlan[0].mac.dcf.channelAccess.contention backoffActive:vector ETV
attr autoWarmupFilter false
attr interpolationmode sample-hold
attr recordingmode vector
attr source warmup(count(backoffStarted)-count(backoffStopped))
attr title "backoff active"
vector 22 HandoverShowcase.host1.wlan[0].mac.dcf.channelAccess.contention stateChanged:vector ETV
attr enum IDLE,DEFER,IFS_AND_BACKOFF
attr interpolationmode none
attr recordingmode vector
attr title "contention state changed"
attr type enum
vector 23 HandoverShowcase.host1.wlan[0].mac.dcf.recipientMacDataService packetDropDuplicateDetected:vector(packetBytes) ETV
attr interpolationmode none
attr recordingmode vector(packetBytes)
attr source packetDropReasonIsDuplicateDetected(packetDropped)
attr title "packet drops: duplicate detected, packetBytes"
vector 24 HandoverShowcase.host1.wlan[0].mac.dcf.recoveryProcedure contentionWindowChanged:vector ETV
attr interpolationmode sample-hold
attr recordingmode vector
attr title "contention window"
vector 25 HandoverShowcase.host1.wlan[0].mac.dcf packetSentToPeer:vector(packetBytes) ETV
attr interpolationmode none
attr recordingmode vector(packetBytes)
attr title "packets sent, packetBytes"
vector 26 HandoverShowcase.host1.wlan[0].mac.dcf packetSentToPeerUnicast:vector(packetBytes) ETV
attr interpolationmode none
attr recordingmode vector(packetBytes)
attr source ieee80211Unicast(packetSentToPeer)
attr title "packets sent: unicast, packetBytes"
vector 27 HandoverShowcase.host1.wlan[0].mac.dcf packetSentToPeerMulticast:vector(packetBytes) ETV
attr interpolationmode none
attr recordingmode vector(packetBytes)
attr source ieee80211Multicast(packetSentToPeer)
attr title "packets sent: multicast, packetBytes"
vector 28 HandoverShowcase.host1.wlan[0].mac.dcf packetSentToPeerBroadcast:vector(packetBytes) ETV
attr interpolationmode none
attr recordingmode vector(packetBytes)
attr source ieee80211Broadcast(packetSentToPeer)
attr title "packets sent: broadcast , packetBytes"
vector 29 HandoverShowcase.host1.wlan[0].mac.dcf packetSentToPeerWithRetry:vector(packetBytes) ETV
attr interpolationmode none
attr recordingmode vector(packetBytes)
attr source ieee80211Retry(packetSentToPeer)
attr title "packets sent: with retry, packetBytes"
vector 30 HandoverShowcase.host1.wlan[0].mac.dcf packetSentToPeerWithoutRetry:vector(packetBytes) ETV
attr interpolationmode none
attr recordingmode vector(packetBytes)
attr source ieee80211NotRetry(packetSentToPeer)
attr title "packets sent: without retry, packetBytes"
vector 31 HandoverShowcase.host1.wlan[0].mac.dcf packetReceivedFromPeer:vector(packetBytes) ETV
attr interpolationmode none
attr recordingmode vector(packetBytes)
attr title "packets received, packetBytes"
vector 32 HandoverShowcase.host1.wlan[0].mac.dcf packetReceivedFromPeerUnicast:vector(packetBytes) ETV
attr interpolationmode none
attr recordingmode vector(packetBytes)
attr source ieee80211Unicast(packetReceivedFromPeer)
attr title "packets received: unicast, packetBytes"
vector 33 HandoverShowcase.host1.wlan[0].mac.dcf packetReceivedFromPeerMulticast:vector(packetBytes) ETV
attr interpolationmode none
attr recordingmode vector(packetBytes)
attr source ieee80211Multicast(packetReceivedFromPeer)
attr title "packets received: multicast, packetBytes"
vector 34 HandoverShowcase.host1.wlan[0].mac.dcf packetReceivedFromPeerBroadcast:vector(packetBytes) ETV
attr interpolationmode none
attr recordingmode vector(packetBytes)
attr source ieee80211Broadcast(packetReceivedFromPeer)
attr title "packets received: broadcast, packetBytes"
vector 35 HandoverShowcase.host1.wlan[0].mac.dcf packetReceivedFromPeerWithRetry:vector(packetBytes) ETV
attr interpolationmode none
attr recordingmode vector(packetBytes)
attr source ieee80211Retry(packetReceivedFromPeer)
attr title "packets received: with retry, packetBytes"
vector 36 HandoverShowcase.host1.wlan[0].mac.dcf packetReceivedFromPeerWithoutRetry:vector(packetBytes) ETV
attr interpolationmode none
attr recordingmode vector(packetBytes)
attr source ieee80211NotRetry(packetReceivedFromPeer)
attr title "packets received: without retry, packetBytes"
vector 37 HandoverShowcase.host1.wlan[0].mac.dcf packetDrop:vector(packetBytes) ETV
attr interpolationmode none
attr recordingmode vector(packetBytes)
attr source packetDropped
attr title "packet drops, packetBytes"
vector 38 HandoverShowcase.host1.wlan[0].mac.dcf packetDropNotAddressedToUs:vector(packetBytes) ETV
attr interpolationmode none
attr recordingmode vector(packetBytes)
attr source packetDropReasonIsNotAddressedToUs(packetDropped)
attr title "packet drops: not addressed to us, packetBytes"
vector 39 HandoverShowcase.host1.wlan[0].mac.dcf packetDropQueueOverflow:vector(packetBytes) ETV
attr interpolationmode none
attr recordingmode vector(packetBytes)
attr source packetDropReasonIsQueueOverflow(packetDropped)
attr title "packet drops: queue overflow, packetBytes"
vector 40 HandoverShowcase.host1.wlan[0].mac.dcf packetDropRetryLimitReached:vector(packetBytes) ETV
attr interpolationmode none
attr recordingmode vector(packetBytes)
attr source packetDropReasonIsRetryLimitReached(packetDropped)
attr title "packet drops: retry limit reached, packetBytes"
vector 41 HandoverShowcase.host1.wlan[0].mac.dcf frameSequenceActive:vector ETV
attr autoWarmupFilter false
attr interpolationmode sample-hold
attr recordingmode vector
attr source warmup(count(frameSequenceStarted)-count(frameSequenceFinished))
attr title "frame sequence active"
vector 42 HandoverShowcase.host1.wlan[0].mac.dcf datarateSelected:vector ETV
attr interpolationmode none
attr recordingmode vector
attr title "datarates selected"
vector 43 HandoverShowcase.host1.wlan[0].mac.rx nav:vector ETV
attr interpolationmode linear
attr recordingmode vector
attr source navChanged
attr title "network allocation vector"
vector 44 HandoverShowcase.host1.wlan[0].mac packetSentToUpper:vector(packetBytes) ETV
attr interpolationmode none
attr recordingmode vector(packetBytes)
attr title "packets sent to upper layer, packetBytes"
vector 45 HandoverShowcase.host1.wlan[0].mac packetSentToLower:vector(packetBytes) ETV
attr interpolationmode none
attr recordingmode vector(packetBytes)
attr title "packets sent to lower layer, packetBytes"
vector 46 HandoverShowcase.host1.wlan[0].mac packetReceivedFromUpper:vector(packetBytes) ETV
attr interpolationmode none
attr recordingmode vector(packetBytes)
attr title "packets received from upper layer, packetBytes"
vector 47 HandoverShowcase.host1.wlan[0].mac packetReceivedFromLower:vector(packetBytes) ETV
attr interpolationmode none
attr recordingmode vector(packetBytes)
attr title "packets received from lower layer, packetBytes"
vector 48 HandoverShowcase.host1.wlan[0].mac packetDrop:vector(packetBytes) ETV
attr interpolationmode none
attr recordingmode vector(packetBytes)
attr source packetDropped
attr title "packet drops, packetBytes"
vector 49 HandoverShowcase.host1.wlan[0].mac packetDropIncorrectlyReceived:vector(packetBytes) ETV
attr interpolationmode none
attr recordingmode vector(packetBytes)
attr source packetDropReasonIsIncorrectlyReceived(packetDropped)
attr title "packet drops: incorrectly received, packetBytes"
vector 50 HandoverShowcase.host1.wlan[0].mac packetDropNotAddressedToUs:vector(packetBytes) ETV
attr interpolationmode none
attr recordingmode vector(packetBytes)
attr source packetDropReasonIsNotAddressedToUs(packetDropped)
attr title "packet drops: not addressed to us, packetBytes"
vector 51 HandoverShowcase.host1.wlan[0].mac packetDropQueueOverflow:vector(packetBytes) ETV
attr interpolationmode none
attr recordingmode vector(packetBytes)
attr source packetDropReasonIsQueueOverflow(packetDropped)
attr title "packet drops: queue overflow, packetBytes"
vector 52 HandoverShowcase.host1.wlan[0].mac packetDropRetryLimitReached:vector(packetBytes) ETV
attr interpolationmode none
attr recordingmode vector(packetBytes)
attr source packetDropReasonIsRetryLimitReached(packetDropped)
attr title "packet drops: retry limit reached, packetBytes"
vector 53 HandoverShowcase.host1.wlan[0].mac packetDropDuplicateDetected:vector(packetBytes) ETV
attr interpolationmode none
attr recordingmode vector(packetBytes)
attr source packetDropReasonIsDuplicateDetected(packetDropped)
attr title "packet drops: duplicate detected, packetBytes"
vector 54 HandoverShowcase.host1.wlan[0].mac packetDropOther:vector(packetBytes) ETV
attr interpolationmode none
attr recordingmode vector(packetBytes)
attr source packetDropReasonIsOther(packetDropped)
attr title "packet drops: other, packetBytes"
vector 55 HandoverShowcase.host1.wlan[0].radio radioMode:vector ETV
attr interpolationmode sample-hold
attr recordingmode vector
attr source radioModeChanged
attr title "Radio mode"
vector 56 HandoverShowcase.host1.wlan[0].radio receptionState:vector ETV
attr interpolationmode sample-hold
attr recordingmode vector
attr source receptionStateChanged
attr title "Radio reception state"
vector 57 HandoverShowcase.host1.wlan[0].radio transmissionState:vector ETV
attr interpolationmode sample-hold
attr recordingmode vector
attr source transmissionStateChanged
attr title "Radio transmission state"
vector 58 HandoverShowcase.host1.wlan[0].radio radioChannel:vector ETV
attr interpolationmode sample-hold
attr recordingmode vector
attr source radioChannelChanged
attr title "Radio channel"
vector 59 HandoverShowcase.host1.wlan[0] packetDropInterfaceDown:vector(packetBytes) ETV
attr interpolationmode none
attr recordingmode vector(packetBytes)
attr source packetDropReasonIsInterfaceDown(packetDropped)
attr title "packet drops: interface down, packetBytes"
vector 60 HandoverShowcase.host1.wlan[0] packetDropNoCarrier:vector(packetBytes) ETV
attr interpolationmode none
attr recordingmode vector(packetBytes)
attr source packetDropReasonIsNoCarrier(packetDropped)
attr title "packet drops: no carrier, packetBytes"
vector 61 HandoverShowcase.host1.ipv4.ip packetDropAddressResolutionFailed:vector(packetBytes) ETV
attr interpolationmode none
attr recordingmode vector(packetBytes)
attr source packetDropReasonIsAddressResolutionFailed(packetDropped)
attr title "packet drop: address resolution failed, packetBytes"
vector 62 HandoverShowcase.host1.ipv4.ip packetDropHopLimitReached:vector(packetBytes) ETV
attr interpolationmode none
attr recordingmode vector(packetBytes)
attr source packetDropReasonIsHopLimitReached(packetDropped)
attr title "packet drop: hop limit reached, packetBytes"
vector 63 HandoverShowcase.host1.ipv4.ip packetDropForwardingDisabled:vector(packetBytes) ETV
attr interpolationmode none
attr recordingmode vector(packetBytes)
attr source packetDropReasonIsForwardingDisabled(packetDropped)
attr title "packet drop: forwarding disabled, packetBytes"
vector 64 HandoverShowcase.host1.ipv4.ip packetDropNoInterfaceFound:vector(packetBytes) ETV
attr interpolationmode none
attr recordingmode vector(packetBytes)
attr source packetDropReasonIsNoInterfaceFound(packetDropped)
attr title "packet drop: no interface found, packetBytes"
vector 65 HandoverShowcase.host1.ipv4.ip packetDropNoRouteFound:vector(packetBytes) ETV
attr interpolationmode none
attr recordingmode vector(packetBytes)
attr source packetDropReasonIsNoRouteFound(packetDropped)
attr title "packet drop: no route found, packetBytes"
vector 66 HandoverShowcase.host1.ipv4.ip packetDropUndefined:vector(packetBytes) ETV
attr interpolationmode none
attr recordingmode vector(packetBytes)
attr source packetDropReasonIsUndefined(packetDropped)
attr title "packet drop: undefined, packetBytes"
vector 67 HandoverShowcase.host1.ipv4.arp arpRequestSent:vector(packetBytes) ETV
attr recordingmode vector(packetBytes)
attr source arpRequestSent
attr title "ARP request sent, packetBytes"
vector 68 HandoverShowcase.host1.ipv4.arp arpReplySent:vector(packetBytes) ETV
attr recordingmode vector(packetBytes)
attr source arpReplySent
attr title "ARP replies sent, packetBytes"
vector 69 HandoverShowcase.host1.udp packetSent:vector(packetBytes) ETV
attr interpolationmode none
attr recordingmode vector(packetBytes)
attr source packetSent
attr title "packets sent, packetBytes"
vector 70 HandoverShowcase.host1.udp packetReceived:vector(packetBytes) ETV
attr interpolationmode none
attr recordingmode vector(packetBytes)
attr source packetReceived
attr title "packets received, packetBytes"
vector 71 HandoverShowcase.host1.udp passedUpPk:vector(count) ETV
attr interpolationmode none
attr recordingmode vector(count)
attr source packetSentToUpper
attr title "packets passed up, count"
vector 72 HandoverShowcase.host1.udp droppedPkWrongPort:vector(count) ETV
attr interpolationmode none
attr recordingmode vector(count)
attr source packetDropReasonIsNoPortFound(packetDropped)
attr title "packets dropped (wrong port), count"
vector 73 HandoverShowcase.host1.udp droppedPkBadChecksum:vector(count) ETV
attr interpolationmode none
attr recordingmode vector(count)
attr source packetDropReasonIsIncorrectlyReceived(packetDropped)
attr title "packets dropped (checksum error), count"
vector 74 HandoverShowcase.host2.lo[0].lo rcvdPkFromHl:vector(packetBytes) ETV
attr interpolationmode none
attr recordingmode vector(packetBytes)
attr source packetReceivedFromUpper
attr title "packets received from higher layer, packetBytes"
vector 75 HandoverShowcase.host2.lo[0].lo passedUpPk:vector(packetBytes) ETV
attr interpolationmode none
attr recordingmode vector(packetBytes)
attr source packetSentToUpper
attr title "packets passed to higher layer, packetBytes"
vector 76 HandoverShowcase.host2.lo[0] packetDropInterfaceDown:vector(packetBytes) ETV
attr interpolationmode none
attr recordingmode vector(packetBytes)
attr source packetDropReasonIsInterfaceDown(packetDropped)
attr title "packet drops: interface down, packetBytes"
vector 77 HandoverShowcase.host2.lo[0] packetDropNoCarrier:vector(packetBytes) ETV
attr interpolationmode none
attr recordingmode vector(packetBytes)
attr source packetDropReasonIsNoCarrier(packetDropped)
attr title "packet drops: no carrier, packetBytes"
vector 78 HandoverShowcase.host2.wlan[0].agent sentRequest:vector ETV
attr recordingmode vector
attr title "sent requests"
vector 79 HandoverShowcase.host2.wlan[0].agent acceptConfirm:vector ETV
attr recordingmode vector
attr title "accepted confirms"
vector 80 HandoverShowcase.host2.wlan[0].agent dropConfirm:vector ETV
attr recordingmode vector
attr title "dropped confirms"
vector 81 HandoverShowcase.host2.wlan[0].mac.dcf.channelAccess.pendingQueue queueLength:vector ETV
attr autoWarmupFilter false
attr interpolationmode sample-hold
attr recordingmode vector
attr source "warmup(atomic(constant0(packetPushEnded) + count(packetPushStarted) - count(packetPulled) - count(packetRemoved) - count(packetDropped)))"
attr title "queue length"
attr unit pk
vector 82 HandoverShowcase.host2.wlan[0].mac.dcf.channelAccess.pendingQueue queueBitLength:vector ETV
attr autoWarmupFilter false
attr interpolationmode sample-hold
attr recordingmode vector
attr source "warmup(atomic(constant0(packetPushEnded) + sum(packetLength(packetPushStarted)) - sum(packetLength(packetPulled)) - sum(packetLength(packetRemoved)) - sum(packetLength(packetDropped))))"
attr title "queue bit length"
attr unit b
vector 83 HandoverShowcase.host2.wlan[0].mac.dcf.channelAccess.pendingQueue queueingTime:vector ETV
attr interpolationmode none
attr recordingmode vector
attr source queueingTime(packetPulled)
attr title "queueing times"
attr unit s
vector 84 HandoverShowcase.host2.wlan[0].mac.dcf.channelAccess.pendingQueue incomingPacketLengths:vector ETV
attr interpolationmode none
attr recordingmode vector
attr source packetLength(packetPushStarted)
attr title "incoming packet lengths"
attr unit b
vector 85 HandoverShowcase.host2.wlan[0].mac.dcf.channelAccess.pendingQueue incomingDataRate:vector ETV
attr interpolationmode linear
attr recordingmode vector
attr source throughput(packetPushStarted)
attr title "incoming datarate"
attr unit bps
vector 86 HandoverShowcase.host2.wlan[0].mac.dcf.channelAccess.pendingQueue outgoingPacketLengths:vector ETV
attr interpolationmode none
attr recordingmode vector
attr source packetLength(packetPulled)
attr title "outgoing packet lengths"
attr unit b
vector 87 HandoverShowcase.host2.wlan[0].mac.dcf.channelAccess.pendingQueue outgoingDataRate:vector ETV
attr interpolationmode linear
attr recordingmode vector
attr source throughput(packetPulled)
attr title "outgoing datarate"
attr unit bps
vector 88 HandoverShowcase.host2.wlan[0].mac.dcf.channelAccess.pendingQueue droppedPacketLengthsQueueOverflow:vector ETV
attr interpolationmode none
attr recordingmode vector
attr source packetLength(packetDropReasonIsQueueOverflow(packetDropped))
attr title "dropped packet lengths: queue overflow"
attr unit b
vector 89 HandoverShowcase.host2.wlan[0].mac.dcf.channelAccess.pendingQueue flowQueueingTime:vector ETV
attr interpolationmode none
attr recordingmode vector
attr source queueingTime(demuxFlow(packetPulled))
attr title "flow queueing times"
attr unit s
vector 90 HandoverShowcase.host2.wlan[0].mac.dcf.channelAccess.pendingQueue flowIncomingDataRate:vector ETV
attr interpolationmode linear
attr recordingmode vector
attr source throughput(flowPacketLength(demuxFlow(packetPushStarted)))
attr title "flow specific incoming data rate"
attr unit bps
vector 91 HandoverShowcase.host2.wlan[0].mac.dcf.channelAccess.pendingQueue flowOutgoingDataRate:vector ETV
attr interpolationmode linear
attr recordingmode vector
attr source throughput(flowPacketLength(demuxFlow(packetPulled)))
attr title "flow specific outgoing data rate"
attr unit bps
vector 92 HandoverShowcase.host2.wlan[0].mac.dcf.channelAccess.inProgressFrames queueingTime:vector ETV
attr interpolationmode none
attr recordingmode vector
attr source queueingTime(packetDequeued)
attr title "queueing times"
vector 93 HandoverShowcase.host2.wlan[0].mac.dcf.channelAccess.inProgressFrames queueLength:vector ETV
attr autoWarmupFilter false
attr interpolationmode sample-hold
attr recordingmode vector
attr source "warmup(count(packetEnqueued) - count(packetDequeued))"
attr title "queue length"
vector 94 HandoverShowcase.host2.wlan[0].mac.dcf.channelAccess.contention backoffPeriodGenerated:vector ETV
attr interpolationmode none
attr recordingmode vector
attr title "backoff periods"
vector 95 HandoverShowcase.host2.wlan[0].mac.dcf.channelAccess.contention backoffActive:vector ETV
attr autoWarmupFilter false
attr interpolationmode sample-hold
attr recordingmode vector
attr source warmup(count(backoffStarted)-count(backoffStopped))
attr title "backoff active"
vector 96 HandoverShowcase.host2.wlan[0].mac.dcf.channelAccess.contention stateChanged:vector ETV
attr enum IDLE,DEFER,IFS_AND_BACKOFF
attr interpolationmode none
attr recordingmode vector
attr title "contention state changed"
attr type enum
vector 97 HandoverShowcase.host2.wlan[0].mac.dcf.recipientMacDataService packetDropDuplicateDetected:vector(packetBytes) ETV
attr interpolationmode none
attr recordingmode vector(packetBytes)
attr source packetDropReasonIsDuplicateDetected(packetDropped)
attr title "packet drops: duplicate detected, packetBytes"
vector 98 HandoverShowcase.host2.wlan[0].mac.dcf.recoveryProcedure contentionWindowChanged:vector ETV
attr interpolationmode sample-hold
attr recordingmode vector
attr title "contention window"
vector 99 HandoverShowcase.host2.wlan[0].mac.dcf packetSentToPeer:vector(packetBytes) ETV
attr interpolationmode none
attr recordingmode vector(packetBytes)
attr title "packets sent, packetBytes"
vector 100 HandoverShowcase.host2.wlan[0].mac.dcf packetSentToPeerUnicast:vector(packetBytes) ETV
attr interpolationmode none
attr recordingmode vector(packetBytes)
attr source ieee80211Unicast(packetSentToPeer)
attr title "packets sent: unicast, packetBytes"
vector 101 HandoverShowcase.host2.wlan[0].mac.dcf packetSentToPeerMulticast:vector(packetBytes) ETV
attr interpolationmode none
attr recordingmode vector(packetBytes)
attr source ieee80211Multicast(packetSentToPeer)
attr title "packets sent: multicast, packetBytes"
vector 102 HandoverShowcase.host2.wlan[0].mac.dcf packetSentToPeerBroadcast:vector(packetBytes) ETV
attr interpolationmode none
attr recordingmode vector(packetBytes)
attr source ieee80211Broadcast(packetSentToPeer)
attr title "packets sent: broadcast , packetBytes"
vector 103 HandoverShowcase.host2.wlan[0].mac.dcf packetSentToPeerWithRetry:vector(packetBytes) ETV
attr interpolationmode none
attr recordingmode vector(packetBytes)
attr source ieee80211Retry(packetSentToPeer)
attr title "packets sent: with retry, packetBytes"
vector 104 HandoverShowcase.host2.wlan[0].mac.dcf packetSentToPeerWithoutRetry:vector(packetBytes) ETV
attr interpolationmode none
attr recordingmode vector(packetBytes)
attr source ieee80211NotRetry(packetSentToPeer)
attr title "packets sent: without retry, packetBytes"
vector 105 HandoverShowcase.host2.wlan[0].mac.dcf packetReceivedFromPeer:vector(packetBytes) ETV
attr interpolationmode none
attr recordingmode vector(packetBytes)
attr title "packets received, packetBytes"
vector 106 HandoverShowcase.host2.wlan[0].mac.dcf packetReceivedFromPeerUnicast:vector(packetBytes) ETV
attr interpolationmode none
attr recordingmode vector(packetBytes)
attr source ieee80211Unicast(packetReceivedFromPeer)
attr title "packets received: unicast, packetBytes"
vector 107 HandoverShowcase.host2.wlan[0].mac.dcf packetReceivedFromPeerMulticast:vector(packetBytes) ETV
attr interpolationmode none
attr recordingmode vector(packetBytes)
attr source ieee80211Multicast(packetReceivedFromPeer)
attr title "packets received: multicast, packetBytes"
vector 108 HandoverShowcase.host2.wlan[0].mac.dcf packetReceivedFromPeerBroadcast:vector(packetBytes) ETV
attr interpolationmode none
attr recordingmode vector(packetBytes)
attr source ieee80211Broadcast(packetReceivedFromPeer)
attr title "packets received: broadcast, packetBytes"
vector 109 HandoverShowcase.host2.wlan[0].mac.dcf packetReceivedFromPeerWithRetry:vector(packetBytes) ETV
attr interpolationmode none
attr recordingmode vector(packetBytes)
attr source ieee80211Retry(packetReceivedFromPeer)
attr title "packets received: with retry, packetBytes"
vector 110 HandoverShowcase.host2.wlan[0].mac.dcf packetReceivedFromPeerWithoutRetry:vector(packetBytes) ETV
attr interpolationmode none
attr recordingmode vector(packetBytes)
attr source ieee80211NotRetry(packetReceivedFromPeer)
attr title "packets received: without retry, packetBytes"
vector 111 HandoverShowcase.host2.wlan[0].mac.dcf packetDrop:vector(packetBytes) ETV
attr interpolationmode none
attr recordingmode vector(packetBytes)
attr source packetDropped
attr title "packet drops, packetBytes"
vector 112 HandoverShowcase.host2.wlan[0].mac.dcf packetDropNotAddressedToUs:vector(packetBytes) ETV
attr interpolationmode none
attr recordingmode vector(packetBytes)
attr source packetDropReasonIsNotAddressedToUs(packetDropped)
attr title "packet drops: not addressed to us, packetBytes"
vector 113 HandoverShowcase.host2.wlan[0].mac.dcf packetDropQueueOverflow:vector(packetBytes) ETV
attr interpolationmode none
attr recordingmode vector(packetBytes)
attr source packetDropReasonIsQueueOverflow(packetDropped)
attr title "packet drops: queue overflow, packetBytes"
vector 114 HandoverShowcase.host2.wlan[0].mac.dcf packetDropRetryLimitReached:vector(packetBytes) ETV
attr interpolationmode none
attr recordingmode vector(packetBytes)
attr source packetDropReasonIsRetryLimitReached(packetDropped)
attr title "packet drops: retry limit reached, packetBytes"
vector 115 HandoverShowcase.host2.wlan[0].mac.dcf frameSequenceActive:vector ETV
attr autoWarmupFilter false
attr interpolationmode sample-hold
attr recordingmode vector
attr source warmup(count(frameSequenceStarted)-count(frameSequenceFinished))
attr title "frame sequence active"
vector 116 HandoverShowcase.host2.wlan[0].mac.dcf datarateSelected:vector ETV
attr interpolationmode none
attr recordingmode vector
attr title "datarates selected"
vector 117 HandoverShowcase.host2.wlan[0].mac.rx nav:vector ETV
attr interpolationmode linear
attr recordingmode vector
attr source navChanged
attr title "network allocation vector"
vector 118 HandoverShowcase.host2.wlan[0].mac packetSentToUpper:vector(packetBytes) ETV
attr interpolationmode none
attr recordingmode vector(packetBytes)
attr title "packets sent to upper layer, packetBytes"
vector 119 HandoverShowcase.host2.wlan[0].mac packetSentToLower:vector(packetBytes) ETV
attr interpolationmode none
attr recordingmode vector(packetBytes)
attr title "packets sent to lower layer, packetBytes"
vector 120 HandoverShowcase.host2.wlan[0].mac packetReceivedFromUpper:vector(packetBytes) ETV
attr interpolationmode none
attr recordingmode vector(packetBytes)
attr title "packets received from upper layer, packetBytes"
vector 121 HandoverShowcase.host2.wlan[0].mac packetReceivedFromLower:vector(packetBytes) ETV
attr interpolationmode none
attr recordingmode vector(packetBytes)
attr title "packets received from lower layer, packetBytes"
vector 122 HandoverShowcase.host2.wlan[0].mac packetDrop:vector(packetBytes) ETV
attr interpolationmode none
attr recordingmode vector(packetBytes)
attr source packetDropped
attr title "packet drops, packetBytes"
vector 123 HandoverShowcase.host2.wlan[0].mac packetDropIncorrectlyReceived:vector(packetBytes) ETV
attr interpolationmode none
attr recordingmode vector(packetBytes)
attr source packetDropReasonIsIncorrectlyReceived(packetDropped)
attr title "packet drops: incorrectly received, packetBytes"
vector 124 HandoverShowcase.host2.wlan[0].mac packetDropNotAddressedToUs:vector(packetBytes) ETV
attr interpolationmode none
attr recordingmode vector(packetBytes)
attr source packetDropReasonIsNotAddressedToUs(packetDropped)
attr title "packet drops: not addressed to us, packetBytes"
vector 125 HandoverShowcase.host2.wlan[0].mac packetDropQueueOverflow:vector(packetBytes) ETV
attr interpolationmode none
attr recordingmode vector(packetBytes)
attr source packetDropReasonIsQueueOverflow(packetDropped)
attr title "packet drops: queue overflow, packetBytes"
vector 126 HandoverShowcase.host2.wlan[0].mac packetDropRetryLimitReached:vector(packetBytes) ETV
attr interpolationmode none
attr recordingmode vector(packetBytes)
attr source packetDropReasonIsRetryLimitReached(packetDropped)
attr title "packet drops: retry limit reached, packetBytes"
vector 127 HandoverShowcase.host2.wlan[0].mac packetDropDuplicateDetected:vector(packetBytes) ETV
attr interpolationmode none
attr recordingmode vector(packetBytes)
attr source packetDropReasonIsDuplicateDetected(packetDropped)
attr title "packet drops: duplicate detected, packetBytes"
vector 128 HandoverShowcase.host2.wlan[0].mac packetDropOther:vector(packetBytes) ETV
attr interpolationmode none
attr recordingmode vector(packetBytes)
attr source packetDropReasonIsOther(packetDropped)
attr title "packet drops: other, packetBytes"
vector 129 HandoverShowcase.host2.wlan[0].radio radioMode:vector ETV
attr interpolationmode sample-hold
attr recordingmode vector
attr source radioModeChanged
attr title "Radio mode"
vector 130 HandoverShowcase.host2.wlan[0].radio receptionState:vector ETV
attr interpolationmode sample-hold
attr recordingmode vector
attr source receptionStateChanged
attr title "Radio reception state"
vector 131 HandoverShowcase.host2.wlan[0].radio transmissionState:vector ETV
attr interpolationmode sample-hold
attr recordingmode vector
attr source transmissionStateChanged
attr title "Radio transmission state"
vector 132 HandoverShowcase.host2.wlan[0].radio radioChannel:vector ETV
attr interpolationmode sample-hold
attr recordingmode vector
attr source radioChannelChanged
attr title "Radio channel"
vector 133 HandoverShowcase.host2.wlan[0] packetDropInterfaceDown:vector(packetBytes) ETV
attr interpolationmode none
attr recordingmode vector(packetBytes)
attr source packetDropReasonIsInterfaceDown(packetDropped)
attr title "packet drops: interface down, packetBytes"
vector 134 HandoverShowcase.host2.wlan[0] packetDropNoCarrier:vector(packetBytes) ETV
attr interpolationmode none
attr recordingmode vector(packetBytes)
attr source packetDropReasonIsNoCarrier(packetDropped)
attr title "packet drops: no carrier, packetBytes"
vector 135 HandoverShowcase.host2.ipv4.ip packetDropAddressResolutionFailed:vector(packetBytes) ETV
attr interpolationmode none
attr recordingmode vector(packetBytes)
attr source packetDropReasonIsAddressResolutionFailed(packetDropped)
attr title "packet drop: address resolution failed, packetBytes"
vector 136 HandoverShowcase.host2.ipv4.ip packetDropHopLimitReached:vector(packetBytes) ETV
attr interpolationmode none
attr recordingmode vector(packetBytes)
attr source packetDropReasonIsHopLimitReached(packetDropped)
attr title "packet drop: hop limit reached, packetBytes"
vector 137 HandoverShowcase.host2.ipv4.ip packetDropForwardingDisabled:vector(packetBytes) ETV
attr interpolationmode none
attr recordingmode vector(packetBytes)
attr source packetDropReasonIsForwardingDisabled(packetDropped)
attr title "packet drop: forwarding disabled, packetBytes"
vector 138 HandoverShowcase.host2.ipv4.ip packetDropNoInterfaceFound:vector(packetBytes) ETV
attr interpolationmode none
attr recordingmode vector(packetBytes)
attr source packetDropReasonIsNoInterfaceFound(packetDropped)
attr title "packet drop: no interface found, packetBytes"
vector 139 HandoverShowcase.host2.ipv4.ip packetDropNoRouteFound:vector(packetBytes) ETV
attr interpolationmode none
attr recordingmode vector(packetBytes)
attr source packetDropReasonIsNoRouteFound(packetDropped)
attr title "packet drop: no route found, packetBytes"
vector 140 HandoverShowcase.host2.ipv4.ip packetDropUndefined:vector(packetBytes) ETV
attr interpolationmode none
attr recordingmode vector(packetBytes)
attr source packetDropReasonIsUndefined(packetDropped)
attr title "packet drop: undefined, packetBytes"
vector 141 HandoverShowcase.host2.ipv4.arp arpRequestSent:vector(packetBytes) ETV
attr recordingmode vector(packetBytes)
attr source arpRequestSent
attr title "ARP request sent, packetBytes"
vector 142 HandoverShowcase.host2.ipv4.arp arpReplySent:vector(packetBytes) ETV
attr recordingmode vector(packetBytes)
attr source arpReplySent
attr title "ARP replies sent, packetBytes"
vector 143 HandoverShowcase.host2.udp packetSent:vector(packetBytes) ETV
attr interpolationmode none
attr recordingmode vector(packetBytes)
attr source packetSent
attr title "packets sent, packetBytes"
vector 144 HandoverShowcase.host2.udp packetReceived:vector(packetBytes) ETV
attr interpolationmode none
attr recordingmode vector(packetBytes)
attr source packetReceived
attr title "packets received, packetBytes"
vector 145 HandoverShowcase.host2.udp passedUpPk:vector(count) ETV
attr interpolationmode none
attr recordingmode vector(count)
attr source packetSentToUpper
attr title "packets passed up, count"
vector 146 HandoverShowcase.host2.udp droppedPkWrongPort:vector(count) ETV
attr interpolationmode none
attr recordingmode vector(count)
attr source packetDropReasonIsNoPortFound(packetDropped)
attr title "packets dropped (wrong port), count"
vector 147 HandoverShowcase.host2.udp droppedPkBadChecksum:vector(count) ETV
attr interpolationmode none
attr recordingmode vector(count)
attr source packetDropReasonIsIncorrectlyReceived(packetDropped)
attr title "packets dropped (checksum error), count"
vector 148 HandoverShowcase.ap1.wlan[0].mac.dcf.channelAccess.pendingQueue queueLength:vector ETV
attr autoWarmupFilter false
attr interpolationmode sample-hold
attr recordingmode vector
attr source "warmup(atomic(constant0(packetPushEnded) + count(packetPushStarted) - count(packetPulled) - count(packetRemoved) - count(packetDropped)))"
attr title "queue length"
attr unit pk
vector 149 HandoverShowcase.ap1.wlan[0].mac.dcf.channelAccess.pendingQueue queueBitLength:vector ETV
attr autoWarmupFilter false
attr interpolationmode sample-hold
attr recordingmode vector
attr source "warmup(atomic(constant0(packetPushEnded) + sum(packetLength(packetPushStarted)) - sum(packetLength(packetPulled)) - sum(packetLength(packetRemoved)) - sum(packetLength(packetDropped))))"
attr title "queue bit length"
attr unit b
vector 150 HandoverShowcase.ap1.wlan[0].mac.dcf.channelAccess.pendingQueue queueingTime:vector ETV
attr interpolationmode none
attr recordingmode vector
attr source queueingTime(packetPulled)
attr title "queueing times"
attr unit s
vector 151 HandoverShowcase.ap1.wlan[0].mac.dcf.channelAccess.pendingQueue incomingPacketLengths:vector ETV
attr interpolationmode none
attr recordingmode vector
attr source packetLength(packetPushStarted)
attr title "incoming packet lengths"
attr unit b
vector 152 HandoverShowcase.ap1.wlan[0].mac.dcf.channelAccess.pendingQueue incomingDataRate:vector ETV
attr interpolationmode linear
attr recordingmode vector
attr source throughput(packetPushStarted)
attr title "incoming datarate"
attr unit bps
vector 153 HandoverShowcase.ap1.wlan[0].mac.dcf.channelAccess.pendingQueue outgoingPacketLengths:vector ETV
attr interpolationmode none
attr recordingmode vector
attr source packetLength(packetPulled)
attr title "outgoing packet lengths"
attr unit b
vector 154 HandoverShowcase.ap1.wlan[0].mac.dcf.channelAccess.pendingQueue outgoingDataRate:vector ETV
attr interpolationmode linear
attr recordingmode vector
attr source throughput(packetPulled)
attr title "outgoing datarate"
attr unit bps
vector 155 HandoverShowcase.ap1.wlan[0].mac.dcf.channelAccess.pendingQueue droppedPacketLengthsQueueOverflow:vector ETV
attr interpolationmode none
attr recordingmode vector
attr source packetLength(packetDropReasonIsQueueOverflow(packetDropped))
attr title "dropped packet lengths: queue overflow"
attr unit b
vector 156 HandoverShowcase.ap1.wlan[0].mac.dcf.channelAccess.pendingQueue flowQueueingTime:vector ETV
attr interpolationmode none
attr recordingmode vector
attr source queueingTime(demuxFlow(packetPulled))
attr title "flow queueing times"
attr unit s
vector 157 HandoverShowcase.ap1.wlan[0].mac.dcf.channelAccess.pendingQueue flowIncomingDataRate:vector ETV
attr interpolationmode linear
attr recordingmode vector
attr source throughput(flowPacketLength(demuxFlow(packetPushStarted)))
attr title "flow specific incoming data rate"
attr unit bps
vector 158 HandoverShowcase.ap1.wlan[0].mac.dcf.channelAccess.pendingQueue flowOutgoingDataRate:vector ETV
attr interpolationmode linear
attr recordingmode vector
attr source throughput(flowPacketLength(demuxFlow(packetPulled)))
attr title "flow specific outgoing data rate"
attr unit bps
vector 159 HandoverShowcase.ap1.wlan[0].mac.dcf.channelAccess.inProgressFrames queueingTime:vector ETV
attr interpolationmode none
attr recordingmode vector
attr source queueingTime(packetDequeued)
attr title "queueing times"
vector 160 HandoverShowcase.ap1.wlan[0].mac.dcf.channelAccess.inProgressFrames queueLength:vector ETV
attr autoWarmupFilter false
attr interpolationmode sample-hold
attr recordingmode vector
attr source "warmup(count(packetEnqueued) - count(packetDequeued))"
attr title "queue length"
vector 161 HandoverShowcase.ap1.wlan[0].mac.dcf.channelAccess.contention backoffPeriodGenerated:vector ETV
attr interpolationmode none
attr recordingmode vector
attr title "backoff periods"
vector 162 HandoverShowcase.ap1.wlan[0].mac.dcf.channelAccess.contention backoffActive:vector ETV
attr autoWarmupFilter false
attr interpolationmode sample-hold
attr recordingmode vector
attr source warmup(count(backoffStarted)-count(backoffStopped))
attr title "backoff active"
vector 163 HandoverShowcase.ap1.wlan[0].mac.dcf.channelAccess.contention stateChanged:vector ETV
attr enum IDLE,DEFER,IFS_AND_BACKOFF
attr interpolationmode none
attr recordingmode vector
attr title "contention state changed"
attr type enum
vector 164 HandoverShowcase.ap1.wlan[0].mac.dcf.recipientMacDataService packetDropDuplicateDetected:vector(packetBytes) ETV
attr interpolationmode none
attr recordingmode vector(packetBytes)
attr source packetDropReasonIsDuplicateDetected(packetDropped)
attr title "packet drops: duplicate detected, packetBytes"
vector 165 HandoverShowcase.ap1.wlan[0].mac.dcf.recoveryProcedure contentionWindowChanged:vector ETV
attr interpolationmode sample-hold
attr recordingmode vector
attr title "contention window"
vector 166 HandoverShowcase.ap1.wlan[0].mac.dcf packetSentToPeer:vector(packetBytes) ETV
attr interpolationmode none
attr recordingmode vector(packetBytes)
attr title "packets sent, packetBytes"
vector 167 HandoverShowcase.ap1.wlan[0].mac.dcf packetSentToPeerUnicast:vector(packetBytes) ETV
attr interpolationmode none
attr recordingmode vector(packetBytes)
attr source ieee80211Unicast(packetSentToPeer)
attr title "packets sent: unicast, packetBytes"
vector 168 HandoverShowcase.ap1.wlan[0].mac.dcf packetSentToPeerMulticast:vector(packetBytes) ETV
attr interpolationmode none
attr recordingmode vector(packetBytes)
attr source ieee80211Multicast(packetSentToPeer)
attr title "packets sent: multicast, packetBytes"
vector 169 HandoverShowcase.ap1.wlan[0].mac.dcf packetSentToPeerBroadcast:vector(packetBytes) ETV
attr interpolationmode none
attr recordingmode vector(packetBytes)
attr source ieee80211Broadcast(packetSentToPeer)
attr title "packets sent: broadcast , packetBytes"
vector 170 HandoverShowcase.ap1.wlan[0].mac.dcf packetSentToPeerWithRetry:vector(packetBytes) ETV
attr interpolationmode none
attr recordingmode vector(packetBytes)
attr source ieee80211Retry(packetSentToPeer)
attr title "packets sent: with retry, packetBytes"
vector 171 HandoverShowcase.ap1.wlan[0].mac.dcf packetSentToPeerWithoutRetry:vector(packetBytes) ETV
attr interpolationmode none
attr recordingmode vector(packetBytes)
attr source ieee80211NotRetry(packetSentToPeer)
attr title "packets sent: without retry, packetBytes"
vector 172 HandoverShowcase.ap1.wlan[0].mac.dcf packetReceivedFromPeer:vector(packetBytes) ETV
attr interpolationmode none
attr recordingmode vector(packetBytes)
attr title "packets received, packetBytes"
vector 173 HandoverShowcase.ap1.wlan[0].mac.dcf packetReceivedFromPeerUnicast:vector(packetBytes) ETV
attr interpolationmode none
attr recordingmode vector(packetBytes)
attr source ieee80211Unicast(packetReceivedFromPeer)
attr title "packets received: unicast, packetBytes"
vector 174 HandoverShowcase.ap1.wlan[0].mac.dcf packetReceivedFromPeerMulticast:vector(packetBytes) ETV
attr interpolationmode none
attr recordingmode vector(packetBytes)
attr source ieee80211Multicast(packetReceivedFromPeer)
attr title "packets received: multicast, packetBytes"
vector 175 HandoverShowcase.ap1.wlan[0].mac.dcf packetReceivedFromPeerBroadcast:vector(packetBytes) ETV
attr interpolationmode none
attr recordingmode vector(packetBytes)
attr source ieee80211Broadcast(packetReceivedFromPeer)
attr title "packets received: broadcast, packetBytes"
vector 176 HandoverShowcase.ap1.wlan[0].mac.dcf packetReceivedFromPeerWithRetry:vector(packetBytes) ETV
attr interpolationmode none
attr recordingmode vector(packetBytes)
attr source ieee80211Retry(packetReceivedFromPeer)
attr title "packets received: with retry, packetBytes"
vector 177 HandoverShowcase.ap1.wlan[0].mac.dcf packetReceivedFromPeerWithoutRetry:vector(packetBytes) ETV
attr interpolationmode none
attr recordingmode vector(packetBytes)
attr source ieee80211NotRetry(packetReceivedFromPeer)
attr title "packets received: without retry, packetBytes"
vector 178 HandoverShowcase.ap1.wlan[0].mac.dcf packetDrop:vector(packetBytes) ETV
attr interpolationmode none
attr recordingmode vector(packetBytes)
attr source packetDropped
attr title "packet drops, packetBytes"
vector 179 HandoverShowcase.ap1.wlan[0].mac.dcf packetDropNotAddressedToUs:vector(packetBytes) ETV
attr interpolationmode none
attr recordingmode vector(packetBytes)
attr source packetDropReasonIsNotAddressedToUs(packetDropped)
attr title "packet drops: not addressed to us, packetBytes"
vector 180 HandoverShowcase.ap1.wlan[0].mac.dcf packetDropQueueOverflow:vector(packetBytes) ETV
attr interpolationmode none
attr recordingmode vector(packetBytes)
attr source packetDropReasonIsQueueOverflow(packetDropped)
attr title "packet drops: queue overflow, packetBytes"
vector 181 HandoverShowcase.ap1.wlan[0].mac.dcf packetDropRetryLimitReached:vector(packetBytes) ETV
attr interpolationmode none
attr recordingmode vector(packetBytes)
attr source packetDropReasonIsRetryLimitReached(packetDropped)
attr title "packet drops: retry limit reached, packetBytes"
vector 182 HandoverShowcase.ap1.wlan[0].mac.dcf frameSequenceActive:vector ETV
attr autoWarmupFilter false
attr interpolationmode sample-hold
attr recordingmode vector
attr source warmup(count(frameSequenceStarted)-count(frameSequenceFinished))
attr title "frame sequence active"
vector 183 HandoverShowcase.ap1.wlan[0].mac.dcf datarateSelected:vector ETV
attr interpolationmode none
attr recordingmode vector
attr title "datarates selected"
vector 184 HandoverShowcase.ap1.wlan[0].mac.rx nav:vector ETV
attr interpolationmode linear
attr recordingmode vector
attr source navChanged
attr title "network allocation vector"
vector 185 HandoverShowcase.ap1.wlan[0].mac packetSentToUpper:vector(packetBytes) ETV
attr interpolationmode none
attr recordingmode vector(packetBytes)
attr title "packets sent to upper layer, packetBytes"
vector 186 HandoverShowcase.ap1.wlan[0].mac packetSentToLower:vector(packetBytes) ETV
attr interpolationmode none
attr recordingmode vector(packetBytes)
attr title "packets sent to lower layer, packetBytes"
vector 187 HandoverShowcase.ap1.wlan[0].mac packetReceivedFromUpper:vector(packetBytes) ETV
attr interpolationmode none
attr recordingmode vector(packetBytes)
attr title "packets received from upper layer, packetBytes"
vector 188 HandoverShowcase.ap1.wlan[0].mac packetReceivedFromLower:vector(packetBytes) ETV
attr interpolationmode none
attr recordingmode vector(packetBytes)
attr title "packets received from lower layer, packetBytes"
vector 189 HandoverShowcase.ap1.wlan[0].mac packetDrop:vector(packetBytes) ETV
attr interpolationmode none
attr recordingmode vector(packetBytes)
attr source packetDropped
attr title "packet drops, packetBytes"
vector 190 HandoverShowcase.ap1.wlan[0].mac packetDropIncorrectlyReceived:vector(packetBytes) ETV
attr interpolationmode none
attr recordingmode vector(packetBytes)
attr source packetDropReasonIsIncorrectlyReceived(packetDropped)
attr title "packet drops: incorrectly received, packetBytes"
vector 191 HandoverShowcase.ap1.wlan[0].mac packetDropNotAddressedToUs:vector(packetBytes) ETV
attr interpolationmode none
attr recordingmode vector(packetBytes)
attr source packetDropReasonIsNotAddressedToUs(packetDropped)
attr title "packet drops: not addressed to us, packetBytes"
vector 192 HandoverShowcase.ap1.wlan[0].mac packetDropQueueOverflow:vector(packetBytes) ETV
attr interpolationmode none
attr recordingmode vector(packetBytes)
attr source packetDropReasonIsQueueOverflow(packetDropped)
attr title "packet drops: queue overflow, packetBytes"
vector 193 HandoverShowcase.ap1.wlan[0].mac packetDropRetryLimitReached:vector(packetBytes) ETV
attr interpolationmode none
attr recordingmode vector(packetBytes)
attr source packetDropReasonIsRetryLimitReached(packetDropped)
attr title "packet drops: retry limit reached, packetBytes"
vector 194 HandoverShowcase.ap1.wlan[0].mac packetDropDuplicateDetected:vector(packetBytes) ETV
attr interpolationmode none
attr recordingmode vector(packetBytes)
attr source packetDropReasonIsDuplicateDetected(packetDropped)
attr title "packet drops: duplicate detected, packetBytes"
vector 195 HandoverShowcase.ap1.wlan[0].mac packetDropOther:vector(packetBytes) ETV
attr interpolationmode none
attr recordingmode vector(packetBytes)
attr source packetDropReasonIsOther(packetDropped)
attr title "packet drops: other, packetBytes"
vector 196 HandoverShowcase.ap1.wlan[0].radio radioMode:vector ETV
attr interpolationmode sample-hold
attr recordingmode vector
attr source radioModeChanged
attr title "Radio mode"
vector 197 HandoverShowcase.ap1.wlan[0].radio receptionState:vector ETV
attr interpolationmode sample-hold
attr recordingmode vector
attr source receptionStateChanged
attr title "Radio reception state"
vector 198 HandoverShowcase.ap1.wlan[0].radio transmissionState:vector ETV
attr interpolationmode sample-hold
attr recordingmode vector
attr source transmissionStateChanged
attr title "Radio transmission state"
vector 199 HandoverShowcase.ap1.wlan[0].radio radioChannel:vector ETV
attr interpolationmode sample-hold
attr recordingmode vector
attr source radioChannelChanged
attr title "Radio channel"
vector 200 HandoverShowcase.ap1.wlan[0] packetDropInterfaceDown:vector(packetBytes) ETV
attr interpolationmode none
attr recordingmode vector(packetBytes)
attr source packetDropReasonIsInterfaceDown(packetDropped)
attr title "packet drops: interface down, packetBytes"
vector 201 HandoverShowcase.ap1.wlan[0] packetDropNoCarrier:vector(packetBytes) ETV
attr interpolationmode none
attr recordingmode vector(packetBytes)
attr source packetDropReasonIsNoCarrier(packetDropped)
attr title "packet drops: no carrier, packetBytes"
vector 202 HandoverShowcase.ap2.wlan[0].mac.dcf.channelAccess.pendingQueue queueLength:vector ETV
attr autoWarmupFilter false
attr interpolationmode sample-hold
attr recordingmode vector
attr source "warmup(atomic(constant0(packetPushEnded) + count(packetPushStarted) - count(packetPulled) - count(packetRemoved) - count(packetDropped)))"
attr title "queue length"
attr unit pk
vector 203 HandoverShowcase.ap2.wlan[0].mac.dcf.channelAccess.pendingQueue queueBitLength:vector ETV
attr autoWarmupFilter false
attr interpolationmode sample-hold
attr recordingmode vector
attr source "warmup(atomic(constant0(packetPushEnded) + sum(packetLength(packetPushStarted)) - sum(packetLength(packetPulled)) - sum(packetLength(packetRemoved)) - sum(packetLength(packetDropped))))"
attr title "queue bit length"
attr unit b
vector 204 HandoverShowcase.ap2.wlan[0].mac.dcf.channelAccess.pendingQueue queueingTime:vector ETV
attr interpolationmode none
attr recordingmode vector
attr source queueingTime(packetPulled)
attr title "queueing times"
attr unit s
vector 205 HandoverShowcase.ap2.wlan[0].mac.dcf.channelAccess.pendingQueue incomingPacketLengths:vector ETV
attr interpolationmode none
attr recordingmode vector
attr source packetLength(packetPushStarted)
attr title "incoming packet lengths"
attr unit b
vector 206 HandoverShowcase.ap2.wlan[0].mac.dcf.channelAccess.pendingQueue incomingDataRate:vector ETV
attr interpolationmode linear
attr recordingmode vector
attr source throughput(packetPushStarted)
attr title "incoming datarate"
attr unit bps
vector 207 HandoverShowcase.ap2.wlan[0].mac.dcf.channelAccess.pendingQueue outgoingPacketLengths:vector ETV
attr interpolationmode none
attr recordingmode vector
attr source packetLength(packetPulled)
attr title "outgoing packet lengths"
attr unit b
vector 208 HandoverShowcase.ap2.wlan[0].mac.dcf.channelAccess.pendingQueue outgoingDataRate:vector ETV
attr interpolationmode linear
attr recordingmode vector
attr source throughput(packetPulled)
attr title "outgoing datarate"
attr unit bps
vector 209 HandoverShowcase.ap2.wlan[0].mac.dcf.channelAccess.pendingQueue droppedPacketLengthsQueueOverflow:vector ETV
attr interpolationmode none
attr recordingmode vector
attr source packetLength(packetDropReasonIsQueueOverflow(packetDropped))
attr title "dropped packet lengths: queue overflow"
attr unit b
vector 210 HandoverShowcase.ap2.wlan[0].mac.dcf.channelAccess.pendingQueue flowQueueingTime:vector ETV
attr interpolationmode none
attr recordingmode vector
attr source queueingTime(demuxFlow(packetPulled))
attr title "flow queueing times"
attr unit s
vector 211 HandoverShowcase.ap2.wlan[0].mac.dcf.channelAccess.pendingQueue flowIncomingDataRate:vector ETV
attr interpolationmode linear
attr recordingmode vector
attr source throughput(flowPacketLength(demuxFlow(packetPushStarted)))
attr title "flow specific incoming data rate"
attr unit bps
vector 212 HandoverShowcase.ap2.wlan[0].mac.dcf.channelAccess.pendingQueue flowOutgoingDataRate:vector ETV
attr interpolationmode linear
attr recordingmode vector
attr source throughput(flowPacketLength(demuxFlow(packetPulled)))
attr title "flow specific outgoing data rate"
attr unit bps
vector 213 HandoverShowcase.ap2.wlan[0].mac.dcf.channelAccess.inProgressFrames queueingTime:vector ETV
attr interpolationmode none
attr recordingmode vector
attr source queueingTime(packetDequeued)
attr title "queueing times"
vector 214 HandoverShowcase.ap2.wlan[0].mac.dcf.channelAccess.inProgressFrames queueLength:vector ETV
attr autoWarmupFilter false
attr interpolationmode sample-hold
attr recordingmode vector
attr source "warmup(count(packetEnqueued) - count(packetDequeued))"
attr title "queue length"
vector 215 HandoverShowcase.ap2.wlan[0].mac.dcf.channelAccess.contention backoffPeriodGenerated:vector ETV
attr interpolationmode none
attr recordingmode vector
attr title "backoff periods"
vector 216 HandoverShowcase.ap2.wlan[0].mac.dcf.channelAccess.contention backoffActive:vector ETV
attr autoWarmupFilter false
attr interpolationmode sample-hold
attr recordingmode vector
attr source warmup(count(backoffStarted)-count(backoffStopped))
attr title "backoff active"
vector 217 HandoverShowcase.ap2.wlan[0].mac.dcf.channelAccess.contention stateChanged:vector ETV
attr enum IDLE,DEFER,IFS_AND_BACKOFF
attr interpolationmode none
attr recordingmode vector
attr title "contention state changed"
attr type enum
vector 218 HandoverShowcase.ap2.wlan[0].mac.dcf.recipientMacDataService packetDropDuplicateDetected:vector(packetBytes) ETV
attr interpolationmode none
attr recordingmode vector(packetBytes)
attr source packetDropReasonIsDuplicateDetected(packetDropped)
attr title "packet drops: duplicate detected, packetBytes"
vector 219 HandoverShowcase.ap2.wlan[0].mac.dcf.recoveryProcedure contentionWindowChanged:vector ETV
attr interpolationmode sample-hold
attr recordingmode vector
attr title "contention window"
vector 220 HandoverShowcase.ap2.wlan[0].mac.dcf packetSentToPeer:vector(packetBytes) ETV
attr interpolationmode none
attr recordingmode vector(packetBytes)
attr title "packets sent, packetBytes"
vector 221 HandoverShowcase.ap2.wlan[0].mac.dcf packetSentToPeerUnicast:vector(packetBytes) ETV
attr interpolationmode none
attr recordingmode vector(packetBytes)
attr source ieee80211Unicast(packetSentToPeer)
attr title "packets sent: unicast, packetBytes"
vector 222 HandoverShowcase.ap2.wlan[0].mac.dcf packetSentToPeerMulticast:vector(packetBytes) ETV
attr interpolationmode none
attr recordingmode vector(packetBytes)
attr source ieee80211Multicast(packetSentToPeer)
attr title "packets sent: multicast, packetBytes"
vector 223 HandoverShowcase.ap2.wlan[0].mac.dcf packetSentToPeerBroadcast:vector(packetBytes) ETV
attr interpolationmode none
attr recordingmode vector(packetBytes)
attr source ieee80211Broadcast(packetSentToPeer)
attr title "packets sent: broadcast , packetBytes"
vector 224 HandoverShowcase.ap2.wlan[0].mac.dcf packetSentToPeerWithRetry:vector(packetBytes) ETV
attr interpolationmode none
attr recordingmode vector(packetBytes)
attr source ieee80211Retry(packetSentToPeer)
attr title "packets sent: with retry, packetBytes"
vector 225 HandoverShowcase.ap2.wlan[0].mac.dcf packetSentToPeerWithoutRetry:vector(packetBytes) ETV
attr interpolationmode none
attr recordingmode vector(packetBytes)
attr source ieee80211NotRetry(packetSentToPeer)
attr title "packets sent: without retry, packetBytes"
vector 226 HandoverShowcase.ap2.wlan[0].mac.dcf packetReceivedFromPeer:vector(packetBytes) ETV
attr interpolationmode none
attr recordingmode vector(packetBytes)
attr title "packets received, packetBytes"
vector 227 HandoverShowcase.ap2.wlan[0].mac.dcf packetReceivedFromPeerUnicast:vector(packetBytes) ETV
attr interpolationmode none
attr recordingmode vector(packetBytes)
attr source ieee80211Unicast(packetReceivedFromPeer)
attr title "packets received: unicast, packetBytes"
vector 228 HandoverShowcase.ap2.wlan[0].mac.dcf packetReceivedFromPeerMulticast:vector(packetBytes) ETV
attr interpolationmode none
attr recordingmode vector(packetBytes)
attr source ieee80211Multicast(packetReceivedFromPeer)
attr title "packets received: multicast, packetBytes"
vector 229 HandoverShowcase.ap2.wlan[0].mac.dcf packetReceivedFromPeerBroadcast:vector(packetBytes) ETV
attr interpolationmode none
attr recordingmode vector(packetBytes)
attr source ieee80211Broadcast(packetReceivedFromPeer)
attr title "packets received: broadcast, packetBytes"
vector 230 HandoverShowcase.ap2.wlan[0].mac.dcf packetReceivedFromPeerWithRetry:vector(packetBytes) ETV
attr interpolationmode none
attr recordingmode vector(packetBytes)
attr source ieee80211Retry(packetReceivedFromPeer)
attr title "packets received: with retry, packetBytes"
vector 231 HandoverShowcase.ap2.wlan[0].mac.dcf packetReceivedFromPeerWithoutRetry:vector(packetBytes) ETV
attr interpolationmode none
attr recordingmode vector(packetBytes)
attr source ieee80211NotRetry(packetReceivedFromPeer)
attr title "packets received: without retry, packetBytes"
vector 232 HandoverShowcase.ap2.wlan[0].mac.dcf packetDrop:vector(packetBytes) ETV
attr interpolationmode none
attr recordingmode vector(packetBytes)
attr source packetDropped
attr title "packet drops, packetBytes"
vector 233 HandoverShowcase.ap2.wlan[0].mac.dcf packetDropNotAddressedToUs:vector(packetBytes) ETV
attr interpolationmode none
attr recordingmode vector(packetBytes)
attr source packetDropReasonIsNotAddressedToUs(packetDropped)
attr title "packet drops: not addressed to us, packetBytes"
vector 234 HandoverShowcase.ap2.wlan[0].mac.dcf packetDropQueueOverflow:vector(packetBytes) ETV
attr interpolationmode none
attr recordingmode vector(packetBytes)
attr source packetDropReasonIsQueueOverflow(packetDropped)
attr title "packet drops: queue overflow, packetBytes"
vector 235 HandoverShowcase.ap2.wlan[0].mac.dcf packetDropRetryLimitReached:vector(packetBytes) ETV
attr interpolationmode none
attr recordingmode vector(packetBytes)
attr source packetDropReasonIsRetryLimitReached(packetDropped)
attr title "packet drops: retry limit reached, packetBytes"
vector 236 HandoverShowcase.ap2.wlan[0].mac.dcf frameSequenceActive:vector ETV
attr autoWarmupFilter false
attr interpolationmode sample-hold
attr recordingmode vector
attr source warmup(count(frameSequenceStarted)-count(frameSequenceFinished))
attr title "frame sequence active"
vector 237 HandoverShowcase.ap2.wlan[0].mac.dcf datarateSelected:vector ETV
attr interpolationmode none
attr recordingmode vector
attr title "datarates selected"
vector 238 HandoverShowcase.ap2.wlan[0].mac.rx nav:vector ETV
attr interpolationmode linear
attr recordingmode vector
attr source navChanged
attr title "network allocation vector"
vector 239 HandoverShowcase.ap2.wlan[0].mac packetSentToUpper:vector(packetBytes) ETV
attr interpolationmode none
attr recordingmode vector(packetBytes)
attr title "packets sent to upper layer, packetBytes"
vector 240 HandoverShowcase.ap2.wlan[0].mac packetSentToLower:vector(packetBytes) ETV
attr interpolationmode none
attr recordingmode vector(packetBytes)
attr title "packets sent to lower layer, packetBytes"
vector 241 HandoverShowcase.ap2.wlan[0].mac packetReceivedFromUpper:vector(packetBytes) ETV
attr interpolationmode none
attr recordingmode vector(packetBytes)
attr title "packets received from upper layer, packetBytes"
vector 242 HandoverShowcase.ap2.wlan[0].mac packetReceivedFromLower:vector(packetBytes) ETV
attr interpolationmode none
attr recordingmode vector(packetBytes)
attr title "packets received from lower layer, packetBytes"
vector 243 HandoverShowcase.ap2.wlan[0].mac packetDrop:vector(packetBytes) ETV
attr interpolationmode none
attr recordingmode vector(packetBytes)
attr source packetDropped
attr title "packet drops, packetBytes"
vector 244 HandoverShowcase.ap2.wlan[0].mac packetDropIncorrectlyReceived:vector(packetBytes) ETV
attr interpolationmode none
attr recordingmode vector(packetBytes)
attr source packetDropReasonIsIncorrectlyReceived(packetDropped)
attr title "packet drops: incorrectly received, packetBytes"
vector 245 HandoverShowcase.ap2.wlan[0].mac packetDropNotAddressedToUs:vector(packetBytes) ETV
attr interpolationmode none
attr recordingmode vector(packetBytes)
attr source packetDropReasonIsNotAddressedToUs(packetDropped)
attr title "packet drops: not addressed to us, packetBytes"
vector 246 HandoverShowcase.ap2.wlan[0].mac packetDropQueueOverflow:vector(packetBytes) ETV
attr interpolationmode none
attr recordingmode vector(packetBytes)
attr source packetDropReasonIsQueueOverflow(packetDropped)
attr title "packet drops: queue overflow, packetBytes"
vector 247 HandoverShowcase.ap2.wlan[0].mac packetDropRetryLimitReached:vector(packetBytes) ETV
attr interpolationmode none
attr recordingmode vector(packetBytes)
attr source packetDropReasonIsRetryLimitReached(packetDropped)
attr title "packet drops: retry limit reached, packetBytes"
vector 248 HandoverShowcase.ap2.wlan[0].mac packetDropDuplicateDetected:vector(packetBytes) ETV
attr interpolationmode none
attr recordingmode vector(packetBytes)
attr source packetDropReasonIsDuplicateDetected(packetDropped)
attr title "packet drops: duplicate detected, packetBytes"
vector 249 HandoverShowcase.ap2.wlan[0].mac packetDropOther:vector(packetBytes) ETV
attr interpolationmode none
attr recordingmode vector(packetBytes)
attr source packetDropReasonIsOther(packetDropped)
attr title "packet drops: other, packetBytes"
vector 250 HandoverShowcase.ap2.wlan[0].radio radioMode:vector ETV
attr interpolationmode sample-hold
attr recordingmode vector
attr source radioModeChanged
attr title "Radio mode"
vector 251 HandoverShowcase.ap2.wlan[0].radio receptionState:vector ETV
attr interpolationmode sample-hold
attr recordingmode vector
attr source receptionStateChanged
attr title "Radio reception state"
vector 252 HandoverShowcase.ap2.wlan[0].radio transmissionState:vector ETV
attr interpolationmode sample-hold
attr recordingmode vector
attr source transmissionStateChanged
attr title "Radio transmission state"
vector 253 HandoverShowcase.ap2.wlan[0].radio radioChannel:vector ETV
attr interpolationmode sample-hold
attr recordingmode vector
attr source radioChannelChanged
attr title "Radio channel"
vector 254 HandoverShowcase.ap2.wlan[0] packetDropInterfaceDown:vector(packetBytes) ETV
attr interpolationmode none
attr recordingmode vector(packetBytes)
attr source packetDropReasonIsInterfaceDown(packetDropped)
attr title "packet drops: interface down, packetBytes"
vector 255 HandoverShowcase.ap2.wlan[0] packetDropNoCarrier:vector(packetBytes) ETV
attr interpolationmode none
attr recordingmode vector(packetBytes)
attr source packetDropReasonIsNoCarrier(packetDropped)
attr title "packet drops: no carrier, packetBytes"
4	51	0.131276162993	1
4	725	1.531276162993	2
4	826	1.532607205317	4
4	12007	29.039224124138	1
4	12669	30.439224124138	2
4	12784	30.440396279691	4
4	36543	89.055718122063	1
4	37220	90.455718122063	2
4	37321	90.457090275618	4
5	725	1.531276162993	1
5	826	1.532607205317	2
5	886	1.533699726436	4
5	12669	30.439224124138	1
5	12784	30.440396279691	2
5	12844	30.440889357411	4
5	37220	90.455718122063	1
5	37321	90.457090275618	2
5	37381	90.458523352293	4
7	0	0	0
7	0	0	0
7	0	0	0
7	0	0	0
7	0	0	0
7	102	0.231276162993	1
7	104	0.231276162993	0
7	200	0.481276162993	1
7	202	0.481276162993	0
7	331	0.731276162993	1
7	333	0.731276162993	0
7	533	1.131276162993	1
7	535	1.131276162993	0
7	633	1.381276162993	1
7	635	1.381276162993	0
7	728	1.531276162993	1
7	731	1.531276162993	0
7	770	1.53151468417	1
7	787	1.53220868417	0
7	829	1.532607205317	1
7	847	1.533061205317	0
7	12046	29.139224124138	1
7	12048	29.139224124138	0
7	12155	29.389224124138	1
7	12157	29.389224124138	0
7	12273	29.639224124138	1
7	12275	29.639224124138	0
7	12384	29.889224124138	1
7	12386	29.889224124138	0
7	12600	30.289224124138	1
7	12602	30.289224124138	0
7	12672	30.439224124138	1
7	12675	30.439224124138	0
7	12728	30.439543201942	1
7	12745	30.440197201942	0
7	12787	30.440396279691	1
7	12805	30.440670279691	0
7	36582	89.155718122063	1
7	36584	89.155718122063	0
7	36707	89.405718122063	1
7	36709	89.405718122063	0
7	36811	89.655718122063	1
7	36813	89.655718122063	0
7	37025	90.055718122063	1
7	37027	90.055718122063	0
7	37152	90.305718122063	1
7	37154	90.305718122063	0
7	37223	90.455718122063	1
7	37226	90.455718122063	0
7	37265	90.456237198869	1
7	37282	90.456771198869	0
7	37324	90.457090275618	1
7	37342	90.457784275618	0
8	0	0	0
8	0	0	0
8	0	0	0
8	0	0	0
8	0	0	0
8	102	0.231276162993	256
8	104	0.231276162993	0
8	200	0.481276162993	256
8	202	0.481276162993	0
8	331	0.731276162993	256
8	333	0.731276162993	0
8	533	1.131276162993	256
8	535	1.131276162993	0
8	633	1.381276162993	256
8	635	1.381276162993	0
8	728	1.531276162993	272
8	731	1.531276162993	0
8	770	1.53151468417	272
8	787	1.53220868417	0
8	829	1.532607205317	288
8	847	1.533061205317	0
8	12046	29.139224124138	256
8	12048	29.139224124138	0
8	12155	29.389224124138	256
8	12157	29.389224124138	0
8	12273	29.639224124138	256
8	12275	29.639224124138	0
8	12384	29.889224124138	256
8	12386	29.889224124138	0
8	12600	30.289224124138	256
8	12602	30.289224124138	0
8	12672	30.439224124138	272
8	12675	30.439224124138	0
8	12728	30.439543201942	272
8	12745	30.440197201942	0
8	12787	30.440396279691	288
8	12805	30.440670279691	0
8	36582	89.155718122063	256
8	36584	89.155718122063	0
8	36707	89.405718122063	256
8	36709	89.405718122063	0
8	36811	89.655718122063	256
8	36813	89.655718122063	0
8	37025	90.055718122063	256
8	37027	90.055718122063	0
8	37152	90.305718122063	256
8	37154	90.305718122063	0
8	37223	90.455718122063	272
8	37226	90.455718122063	0
8	37265	90.456237198869	272
8	37282	90.456771198869	0
8	37324	90.457090275618	288
8	37342	90.457784275618	0
9	104	0.231276162993	0
9	202	0.481276162993	0
9	333	0.731276162993	0
9	535	1.131276162993	0
9	635	1.381276162993	0
9	731	1.531276162993	0
9	787	1.53220868417	0.000694
9	847	1.533061205317	0.000454
9	12048	29.139224124138	0
9	12157	29.389224124138	0
9	12275	29.639224124138	0
9	12386	29.889224124138	0
9	12602	30.289224124138	0
9	12675	30.439224124138	0
9	12745	30.440197201942	0.000654
9	12805	30.440670279691	0.000274
9	36584	89.155718122063	0
9	36709	89.405718122063	0
9	36813	89.655718122063	0
9	37027	90.055718122063	0
9	37154	90.305718122063	0
9	37226	90.455718122063	0
9	37282	90.456771198869	0.000534
9	37342	90.457784275618	0.000694
10	102	0.231276162993	256
10	200	0.481276162993	256
10	331	0.731276162993	256
10	533	1.131276162993	256
10	633	1.381276162993	256
10	728	1.531276162993	272
10	770	1.53151468417	272
10	829	1.532607205317	288
10	12046	29.139224124138	256
10	12155	29.389224124138	256
10	12273	29.639224124138	256
10	12384	29.889224124138	256
10	12600	30.289224124138	256
10	12672	30.439224124138	272
10	12728	30.439543201942	272
10	12787	30.440396279691	288
10	36582	89.155718122063	256
10	36707	89.405718122063	256
10	36811	89.655718122063	256
10	37025	90.055718122063	256
10	37152	90.305718122063	256
10	37223	90.455718122063	272
10	37265	90.456237198869	272
10	37324	90.457090275618	288
11	102	0.1	0
11	102	0.2	0
11	200	0.3	2560
11	200	0.4	0
11	331	0.5	2560
11	331	0.6	0
11	331	0.7	0
11	533	0.8	2560
11	533	0.9	0
11	533	1	0
11	533	1.1	0
11	633	1.2	2560
11	633	1.3	0
11	728	1.4	2560
11	728	1.5	0
11	12046	1.6	8320
11	12046	1.7	0
11	12046	1.8	0
11	12046	1.9	0
11	12046	2	0
11	12046	2.1	0
11	12046	2.2	0
11	12046	2.3	0
11	12046	2.4	0
11	12046	2.5	0
11	12046	2.6	0
11	12046	2.7	0
11	12046	2.8	0
11	12046	2.9	0
11	12046	3	0
11	12046	3.1	0
11	12046	3.2	0
11	12046	3.3	0
11	12046	3.4	0
11	12046	3.5	0
11	12046	3.6	0
11	12046	3.7	0
11	12046	3.8	0
11	12046	3.9	0
11	12046	4	0
11	12046	4.1	0
11	12046	4.2	0
11	12046	4.3	0
11	12046	4.4	0
11	12046	4.5	0
11	12046	4.6	0
11	12046	4.7	0
11	12046	4.8	0
11	12046	4.9	0
11	12046	5	0
11	12046	5.1	0
11	12046	5.2	0
11	12046	5.3	0
11	12046	5.4	0
11	12046	5.5	0
11	12046	5.6	0
11	12046	5.7	0
11	12046	5.8	0
11	12046	5.9	0
11	12046	6	0
11	12046	6.1	0
11	12046	6.2	0
11	12046	6.3	0
11	12046	6.4	0
11	12046	6.5	0
11	12046	6.6	0
11	12046	6.7	0
11	12046	6.8	0
11	12046	6.9	0
11	12046	7	0
11	12046	7.1	0
11	12046	7.2	0
11	12046	7.3	0
11	12046	7.4	0
11	12046	7.5	0
11	12046	7.6	0
11	12046	7.7	0
11	12046	7.8	0
11	12046	7.9	0
11	12046	8	0
11	12046	8.1	0
11	12046	8.2	0
11	12046	8.3	0
11	12046	8.4	0
11	12046	8.5	0
11	12046	8.6	0
11	12046	8.7	0
11	12046	8.8	0
11	12046	8.9	0
11	12046	9	0
11	12046	9.1	0
11	12046	9.2	0
11	12046	9.3	0
11	12046	9.4	0
11	12046	9.5	0
11	12046	9.6	0
11	12046	9.7	0
11	12046	9.8	0
11	12046	9.9	0
11	12046	10	0
11	12046	10.1	0
11	12046	10.2	0
11	12046	10.3	0
11	12046	10.4	0
11	12046	10.5	0
11	12046	10.6	0
11	12046	10.7	0
11	12046	10.8	0
11	12046	10.9	0
11	12046	11	0
11	12046	11.1	0
11	12046	11.2	0
11	12046	11.3	0
11	12046	11.4	0
11	12046	11.5	0
11	12046	11.6	0
11	12046	11.7	0
11	12046	11.8	0
11	12046	11.9	0
11	12046	12	0
11	12046	12.1	0
11	12046	12.2	0
11	12046	12.3	0
11	12046	12.4	0
11	12046	12.5	0
11	12046	12.6	0
11	12046	12.7	0
11	12046	12.8	0
11	12046	12.9	0
11	12046	13	0
11	12046	13.1	0
11	12046	13.2	0
11	12046	13.3	0
11	12046	13.4	0
11	12046	13.5	0
11	12046	13.6	0
11	12046	13.7	0
11	12046	13.8	0
11	12046	13.9	0
11	12046	14	0
11	12046	14.1	0
11	12046	14.2	0
11	12046	14.3	0
11	12046	14.4	0
11	12046	14.5	0
11	12046	14.6	0
11	12046	14.7	0
11	12046	14.8	0
11	12046	14.9	0
11	12046	15	0
11	12046	15.1	0
11	12046	15.2	0
11	12046	15.3	0
11	12046	15.4	0
11	12046	15.5	0
11	12046	15.6	0
11	12046	15.7	0
11	12046	15.8	0
11	12046	15.9	0
11	12046	16	0
11	12046	16.1	0
11	12046	16.2	0
11	12046	16.3	0
11	12046	16.4	0
11	12046	16.5	0
11	12046	16.6	0
11	12046	16.7	0
11	12046	16.8	0
11	12046	16.9	0
11	12046	17	0
11	12046	17.1	0
11	12046	17.2	0
11	12046	17.3	0
11	12046	17.4	0
11	12046	17.5	0
11	12046	17.6	0
11	12046	17.7	0
11	12046	17.8	0
11	12046	17.9	0
11	12046	18	0
11	12046	18.1	0
11	12046	18.2	0
11	12046	18.3	0
11	12046	18.4	0
11	12046	18.5	0
11	12046	18.6	0
11	12046	18.7	0
11	12046	18.8	0
11	12046	18.9	0
11	12046	19	0
11	12046	19.1	0
11	12046	19.2	0
11	12046	19.3	0
11	12046	19.4	0
11	12046	19.5	0
11	12046	19.6	0
11	12046	19.7	0
11	12046	19.8	0
11	12046	19.9	0
11	12046	20	0
11	12046	20.1	0
11	12046	20.2	0
11	12046	20.3	0
11	12046	20.4	0
11	12046	20.5	0
11	12046	20.6	0
11	12046	20.7	0
11	12046	20.8	0
11	12046	20.9	0
11	12046	21	0
11	12046	21.1	0
11	12046	21.2	0
11	12046	21.3	0
11	12046	21.4	0
11	12046	21.5	0
11	12046	21.6	0
11	12046	21.7	0
11	12046	21.8	0
11	12046	21.9	0
11	12046	22	0
11	12046	22.1	0
11	12046	22.2	0
11	12046	22.3	0
11	12046	22.4	0
11	12046	22.5	0
11	12046	22.6	0
11	12046	22.7	0
11	12046	22.8	0
11	12046	22.9	0
11	12046	23	0
11	12046	23.1	0
11	12046	23.2	0
11	12046	23.3	0
11	12046	23.4	0
11	12046	23.5	0
11	12046	23.6	0
11	12046	23.7	0
11	12046	23.8	0
11	12046	23.9	0
11	12046	24	0
11	12046	24.1	0
11	12046	24.2	0
11	12046	24.3	0
11	12046	24.4	0
11	12046	24.5	0
11	12046	24.6	0
11	12046	24.7	0
11	12046	24.8	0
11	12046	24.9	0
11	12046	25	0
11	12046	25.1	0
11	12046	25.2	0
11	12046	25.3	0
11	12046	25.4	0
11	12046	25.5	0
11	12046	25.6	0
11	12046	25.7	0
11	12046	25.8	0
11	12046	25.9	0
11	12046	26	0
11	12046	26.1	0
11	12046	26.2	0
11	12046	26.3	0
11	12046	26.4	0
11	12046	26.5	0
11	12046	26.6	0
11	12046	26.7	0
11	12046	26.8	0
11	12046	26.9	0
11	12046	27	0
11	12046	27.1	0
11	12046	27.2	0
11	12046	27.3	0
11	12046	27.4	0
11	12046	27.5	0
11	12046	27.6	0
11	12046	27.7	0
11	12046	27.8	0
11	12046	27.9	0
11	12046	28	0
11	12046	28.1	0
11	12046	28.2	0
11	12046	28.3	0
11	12046	28.4	0
11	12046	28.5	0
11	12046	28.6	0
11	12046	28.7	0
11	12046	28.8	0
11	12046	28.9	0
11	12046	29	0
11	12046	29.1	0
11	12155	29.2	2560
11	12155	29.3	0
11	12273	29.4	2560
11	12273	29.5	0
11	12273	29.6	0
11	12384	29.7	2560
11	12384	29.8	0
11	12600	29.9	2560
11	12600	30	0
11	12600	30.1	0
11	12600	30.2	0
11	12672	30.3	2560
11	12672	30.4	0
11	36582	30.5	8320
11	36582	30.6	0
11	36582	30.7	0
11	36582	30.8	0
11	36582	30.9	0
11	36582	31	0
11	36582	31.1	0
11	36582	31.2	0
11	36582	31.3	0
11	36582	31.4	0
11	36582	31.5	0
11	36582	31.6	0
11	36582	31.7	0
11	36582	31.8	0
11	36582	31.9	0
11	36582	32	0
11	36582	32.1	0
11	36582	32.2	0
11	36582	32.3	0
11	36582	32.4	0
11	36582	32.5	0
11	36582	32.6	0
11	36582	32.7	0
11	36582	32.8	0
11	36582	32.9	0
11	36582	33	0
11	36582	33.1	0
11	36582	33.2	0
11	36582	33.3	0
11	36582	33.4	0
11	36582	33.5	0
11	36582	33.6	0
11	36582	33.7	0
11	36582	33.8	0
11	36582	33.9	0
11	36582	34	0
11	36582	34.1	0
11	36582	34.2	0
11	36582	34.3	0
11	36582	34.4	0
11	36582	34.5	0
11	36582	34.6	0
11	36582	34.7	0
11	36582	34.8	0
11	36582	34.9	0
11	36582	35	0
11	36582	35.1	0
11	36582	35.2	0
11	36582	35.3	0
11	36582	35.4	0
11	36582	35.5	0
11	36582	35.6	0
11	36582	35.7	0
11	36582	35.8	0
11	36582	35.9	0
11	36582	36	0
11	36582	36.1	0
11	36582	36.2	0
11	36582	36.3	0
11	36582	36.4	0
11	36582	36.5	0
11	36582	36.6	0
11	36582	36.7	0
11	36582	36.8	0
11	36582	36.9	0
11	36582	37	0
11	36582	37.1	0
11	36582	37.2	0
11	36582	37.3	0
11	36582	37.4	0
11	36582	37.5	0
11	36582	37.6	0
11	36582	37.7	0
11	36582	37.8	0
11	36582	37.9	0
11	36582	38	0
11	36582	38.1	0
11	36582	38.2	0
11	36582	38.3	0
11	36582	38.4	0
11	36582	38.5	0
11	36582	38.6	0
11	36582	38.7	0
11	36582	38.8	0
11	36582	38.9	0
11	36582	39	0
11	36582	39.1	0
11	36582	39.2	0
11	36582	39.3	0
11	36582	39.4	0
11	36582	39.5	0
11	36582	39.6	0
11	36582	39.7	0
11	36582	39.8	0
11	36582	39.9	0
11	36582	40	0
11	36582	40.1	0
11	36582	40.2	0
11	36582	40.3	0
11	36582	40.4	0
11	36582	40.5	0
11	36582	40.6	0
11	36582	40.7	0
11	36582	40.8	0
11	36582	40.9	0
11	36582	41	0
11	36582	41.1	0
11	36582	41.2	0
11	36582	41.3	0
11	36582	41.4	0
11	36582	41.5	0
11	36582	41.6	0
11	36582	41.7	0
11	36582	41.8	0
11	36582	41.9	0
11	36582	42	0
11	36582	42.1	0
11	36582	42.2	0
11	36582	42.3	0
11	36582	42.4	0
11	36582	42.5	0
11	36582	42.6	0
11	36582	42.7	0
11	36582	42.8	0
11	36582	42.9	0
11	36582	43	0
11	36582	43.1	0
11	36582	43.2	0
11	36582	43.3	0
11	36582	43.4	0
11	36582	43.5	0
11	36582	43.6	0
11	36582	43.7	0
11	36582	43.8	0
11	36582	43.9	0
11	36582	44	0
11	36582	44.1	0
[...]
252	33752	82.105717297573	0
252	33794	82.205671297573	1
252	33795	82.205671297573	2
252	33799	82.205717297573	1
252	33800	82.205717297573	0
252	33827	82.305671297573	1
252	33828	82.305671297573	2
252	33832	82.305717297573	1
252	33833	82.305717297573	0
252	33863	82.405671297573	1
252	33864	82.405671297573	2
252	33868	82.405717297573	1
252	33869	82.405717297573	0
252	33911	82.505671297573	1
252	33912	82.505671297573	2
252	33916	82.505717297573	1
252	33917	82.505717297573	0
252	33949	82.605671297573	1
252	33950	82.605671297573	2
252	33954	82.605717297573	1
252	33955	82.605717297573	0
252	33997	82.705671297573	1
252	33998	82.705671297573	2
252	34002	82.705717297573	1
252	34003	82.705717297573	0
252	34030	82.805671297573	1
252	34031	82.805671297573	2
252	34035	82.805717297573	1
252	34036	82.805717297573	0
252	34066	82.905671297573	1
252	34067	82.905671297573	2
252	34071	82.905717297573	1
252	34072	82.905717297573	0
252	34114	83.005671297573	1
252	34115	83.005671297573	2
252	34119	83.005717297573	1
252	34120	83.005717297573	0
252	34150	83.105671297573	1
252	34151	83.105671297573	2
252	34155	83.105717297573	1
252	34156	83.105717297573	0
252	34198	83.205671297573	1
252	34199	83.205671297573	2
252	34203	83.205717297573	1
252	34204	83.205717297573	0
252	34231	83.305671297573	1
252	34232	83.305671297573	2
252	34236	83.305717297573	1
252	34237	83.305717297573	0
252	34267	83.405671297573	1
252	34268	83.405671297573	2
252	34272	83.405717297573	1
252	34273	83.405717297573	0
252	34315	83.505671297573	1
252	34316	83.505671297573	2
252	34320	83.505717297573	1
252	34321	83.505717297573	0
252	34351	83.605671297573	1
252	34352	83.605671297573	2
252	34356	83.605717297573	1
252	34357	83.605717297573	0
252	34399	83.705671297573	1
252	34400	83.705671297573	2
252	34404	83.705717297573	1
252	34405	83.705717297573	0
252	34432	83.805671297573	1
252	34433	83.805671297573	2
252	34437	83.805717297573	1
252	34438	83.805717297573	0
252	34470	83.905671297573	1
252	34471	83.905671297573	2
252	34475	83.905717297573	1
252	34476	83.905717297573	0
252	34518	84.005671297573	1
252	34519	84.005671297573	2
252	34523	84.005717297573	1
252	34524	84.005717297573	0
252	34554	84.105671297573	1
252	34555	84.105671297573	2
252	34559	84.105717297573	1
252	34560	84.105717297573	0
252	34602	84.205671297573	1
252	34603	84.205671297573	2
252	34607	84.205717297573	1
252	34608	84.205717297573	0
252	34635	84.305671297573	1
252	34636	84.305671297573	2
252	34640	84.305717297573	1
252	34641	84.305717297573	0
252	34671	84.405671297573	1
252	34672	84.405671297573	2
252	34676	84.405717297573	1
252	34677	84.405717297573	0
252	34719	84.505671297573	1
252	34720	84.505671297573	2
252	34724	84.505717297573	1
252	34725	84.505717297573	0
252	34755	84.605671297573	1
252	34756	84.605671297573	2
252	34760	84.605717297573	1
252	34761	84.605717297573	0
252	34803	84.705671297573	1
252	34804	84.705671297573	2
252	34808	84.705717297573	1
252	34809	84.705717297573	0
252	34836	84.805671297573	1
252	34837	84.805671297573	2
252	34841	84.805717297573	1
252	34842	84.805717297573	0
252	34872	84.905671297573	1
252	34873	84.905671297573	2
252	34877	84.905717297573	1
252	34878	84.905717297573	0
252	34920	85.005671297573	1
252	34921	85.005671297573	2
252	34925	85.005717297573	1
252	34926	85.005717297573	0
252	34958	85.105671297573	1
252	34959	85.105671297573	2
252	34963	85.105717297573	1
252	34964	85.105717297573	0
252	35006	85.205671297573	1
252	35007	85.205671297573	2
252	35011	85.205717297573	1
252	35012	85.205717297573	0
252	35039	85.305671297573	1
252	35040	85.305671297573	2
252	35044	85.305717297573	1
252	35045	85.305717297573	0
252	35075	85.405671297573	1
252	35076	85.405671297573	2
252	35080	85.405717297573	1
252	35081	85.405717297573	0
252	35123	85.505671297573	1
252	35124	85.505671297573	2
252	35128	85.505717297573	1
252	35129	85.505717297573	0
252	35159	85.605671297573	1
252	35160	85.605671297573	2
252	35164	85.605717297573	1
252	35165	85.605717297573	0
252	35207	85.705671297573	1
252	35208	85.705671297573	2
252	35212	85.705717297573	1
252	35213	85.705717297573	0
252	35240	85.805671297573	1
252	35241	85.805671297573	2
252	35245	85.805717297573	1
252	35246	85.805717297573	0
252	35276	85.905671297573	1
252	35277	85.905671297573	2
252	35281	85.905717297573	1
252	35282	85.905717297573	0
252	35324	86.005671297573	1
252	35325	86.005671297573	2
252	35329	86.005717297573	1
252	35330	86.005717297573	0
252	35360	86.105671297573	1
252	35361	86.105671297573	2
252	35365	86.105717297573	1
252	35366	86.105717297573	0
252	35408	86.205671297573	1
252	35409	86.205671297573	2
252	35413	86.205717297573	1
252	35414	86.205717297573	0
252	35441	86.305671297573	1
252	35442	86.305671297573	2
252	35446	86.305717297573	1
252	35447	86.305717297573	0
252	35479	86.405671297573	1
252	35480	86.405671297573	2
252	35484	86.405717297573	1
252	35485	86.405717297573	0
252	35527	86.505671297573	1
252	35528	86.505671297573	2
252	35532	86.505717297573	1
252	35533	86.505717297573	0
252	35563	86.605671297573	1
252	35564	86.605671297573	2
252	35568	86.605717297573	1
252	35569	86.605717297573	0
252	35611	86.705671297573	1
252	35612	86.705671297573	2
252	35616	86.705717297573	1
252	35617	86.705717297573	0
252	35644	86.805671297573	1
252	35645	86.805671297573	2
252	35649	86.805717297573	1
252	35650	86.805717297573	0
252	35680	86.905671297573	1
252	35681	86.905671297573	2
252	35685	86.905717297573	1
252	35686	86.905717297573	0
252	35728	87.005671297573	1
252	35729	87.005671297573	2
252	35733	87.005717297573	1
252	35734	87.005717297573	0
252	35764	87.105671297573	1
252	35765	87.105671297573	2
252	35769	87.105717297573	1
252	35770	87.105717297573	0
252	35812	87.205671297573	1
252	35813	87.205671297573	2
252	35817	87.205717297573	1
252	35818	87.205717297573	0
252	35845	87.305671297573	1
252	35846	87.305671297573	2
252	35850	87.305717297573	1
252	35851	87.305717297573	0
252	35881	87.405671297573	1
252	35882	87.405671297573	2
252	35886	87.405717297573	1
252	35887	87.405717297573	0
252	35929	87.505671297573	1
252	35930	87.505671297573	2
252	35934	87.505717297573	1
252	35935	87.505717297573	0
252	35967	87.605671297573	1
252	35968	87.605671297573	2
252	35972	87.605717297573	1
252	35973	87.605717297573	0
252	36015	87.705671297573	1
252	36016	87.705671297573	2
252	36020	87.705717297573	1
252	36021	87.705717297573	0
252	36048	87.805671297573	1
252	36049	87.805671297573	2
252	36053	87.805717297573	1
252	36054	87.805717297573	0
252	36084	87.905671297573	1
252	36085	87.905671297573	2
252	36089	87.905717297573	1
252	36090	87.905717297573	0
252	36132	88.005671297573	1
252	36133	88.005671297573	2
252	36137	88.005717297573	1
252	36138	88.005717297573	0
252	36168	88.105671297573	1
252	36169	88.105671297573	2
252	36173	88.105717297573	1
252	36174	88.105717297573	0
252	36216	88.205671297573	1
252	36217	88.205671297573	2
252	36221	88.205717297573	1
252	36222	88.205717297573	0
252	36249	88.305671297573	1
252	36250	88.305671297573	2
252	36254	88.305717297573	1
252	36255	88.305717297573	0
252	36285	88.405671297573	1
252	36286	88.405671297573	2
252	36290	88.405717297573	1
252	36291	88.405717297573	0
252	36333	88.505671297573	1
252	36334	88.505671297573	2
252	36338	88.505717297573	1
252	36339	88.505717297573	0
252	36369	88.605671297573	1
252	36370	88.605671297573	2
252	36374	88.605717297573	1
252	36375	88.605717297573	0
252	36417	88.705671297573	1
252	36418	88.705671297573	2
252	36422	88.705717297573	1
252	36423	88.705717297573	0
252	36450	88.805671297573	1
252	36451	88.805671297573	2
252	36455	88.805717297573	1
252	36456	88.805717297573	0
252	36486	88.905671297573	1
252	36487	88.905671297573	2
252	36491	88.905717297573	1
252	36492	88.905717297573	0
252	36532	89.005671297573	1
252	36533	89.005671297573	2
252	36537	89.005717297573	1
252	36538	89.005717297573	0
252	36570	89.105671297573	1
252	36571	89.105671297573	2
252	36575	89.105717297573	1
252	36576	89.105717297573	0
252	36631	89.205671297573	1
252	36632	89.205671297573	2
252	36636	89.205717297573	1
252	36637	89.205717297573	0
252	36662	89.305671297573	1
252	36663	89.305671297573	2
252	36667	89.305717297573	1
252	36668	89.305717297573	0
252	36699	89.405671297573	1
252	36700	89.405671297573	2
252	36704	89.405717297573	1
252	36705	89.405717297573	0
252	36760	89.505671297573	1
252	36761	89.505671297573	2
252	36765	89.505717297573	1
252	36766	89.505717297573	0
252	36799	89.605671297573	1
252	36800	89.605671297573	2
252	36804	89.605717297573	1
252	36805	89.605717297573	0
252	36894	89.705671297573	1
252	36895	89.705671297573	2
252	36899	89.705717297573	1
252	36900	89.705717297573	0
252	36927	89.805671297573	1
252	36928	89.805671297573	2
252	36932	89.805717297573	1
252	36933	89.805717297573	0
252	36964	89.905671297573	1
252	36965	89.905671297573	2
252	36969	89.905717297573	1
252	36970	89.905717297573	0
252	37013	90.005671297573	1
252	37014	90.005671297573	2
252	37018	90.005717297573	1
252	37019	90.005717297573	0
252	37064	90.105671297573	1
252	37065	90.105671297573	2
252	37069	90.105717297573	1
252	37070	90.105717297573	0
252	37110	90.205671297573	1
252	37111	90.205671297573	2
252	37115	90.205717297573	1
252	37116	90.205717297573	0
252	37144	90.305671297573	1
252	37145	90.305671297573	2
252	37149	90.305717297573	1
252	37150	90.305717297573	0
252	37193	90.405671297573	1
252	37194	90.405671297573	2
252	37198	90.405717297573	1
252	37199	90.405717297573	0
252	37431	90.505671297573	1
252	37432	90.505671297573	2
252	37436	90.505717297573	1
252	37437	90.505717297573	0
252	37467	90.605671297573	1
252	37468	90.605671297573	2
252	37472	90.605717297573	1
252	37473	90.605717297573	0
252	37515	90.705671297573	1
252	37516	90.705671297573	2
252	37520	90.705717297573	1
252	37521	90.705717297573	0
252	37548	90.805671297573	1
252	37549	90.805671297573	2
252	37553	90.805717297573	1
252	37554	90.805717297573	0
252	37584	90.905671297573	1
252	37585	90.905671297573	2
252	37589	90.905717297573	1
252	37590	90.905717297573	0
252	37632	91.005671297573	1
252	37633	91.005671297573	2
252	37637	91.005717297573	1
252	37638	91.005717297573	0
252	37668	91.105671297573	1
252	37669	91.105671297573	2
252	37673	91.105717297573	1
252	37674	91.105717297573	0
252	37716	91.205671297573	1
252	37717	91.205671297573	2
252	37721	91.205717297573	1
252	37722	91.205717297573	0
252	37749	91.305671297573	1
252	37750	91.305671297573	2
252	37754	91.305717297573	1
252	37755	91.305717297573	0
252	37787	91.405671297573	1
252	37788	91.405671297573	2
252	37792	91.405717297573	1
252	37793	91.405717297573	0
252	37835	91.505671297573	1
252	37836	91.505671297573	2
252	37840	91.505717297573	1
252	37841	91.505717297573	0
252	37871	91.605671297573	1
252	37872	91.605671297573	2
252	37876	91.605717297573	1
252	37877	91.605717297573	0
252	37919	91.705671297573	1
252	37920	91.705671297573	2
252	37924	91.705717297573	1
252	37925	91.705717297573	0
252	37952	91.805671297573	1
252	37953	91.805671297573	2
252	37957	91.805717297573	1
252	37958	91.805717297573	0
252	37988	91.905671297573	1
252	37989	91.905671297573	2
252	37993	91.905717297573	1
252	37994	91.905717297573	0
252	38036	92.005671297573	1
252	38037	92.005671297573	2
252	38041	92.005717297573	1
252	38042	92.005717297573	0
252	38072	92.105671297573	1
252	38073	92.105671297573	2
252	38077	92.105717297573	1
252	38078	92.105717297573	0
252	38120	92.205671297573	1
252	38121	92.205671297573	2
252	38125	92.205717297573	1
252	38126	92.205717297573	0
252	38153	92.305671297573	1
252	38154	92.305671297573	2
252	38158	92.305717297573	1
252	38159	92.305717297573	0
252	38189	92.405671297573	1
252	38190	92.405671297573	2
252	38194	92.405717297573	1
252	38195	92.405717297573	0
252	38237	92.505671297573	1
252	38238	92.505671297573	2
252	38242	92.505717297573	1
252	38243	92.505717297573	0
252	38275	92.605671297573	1
252	38276	92.605671297573	2
252	38280	92.605717297573	1
252	38281	92.605717297573	0
252	38323	92.705671297573	1
252	38324	92.705671297573	2
252	38328	92.705717297573	1
252	38329	92.705717297573	0
252	38356	92.805671297573	1
252	38357	92.805671297573	2
252	38361	92.805717297573	1
252	38362	92.805717297573	0
252	38392	92.905671297573	1
252	38393	92.905671297573	2
252	38397	92.905717297573	1
252	38398	92.905717297573	0
252	38440	93.005671297573	1
252	38441	93.005671297573	2
252	38445	93.005717297573	1
252	38446	93.005717297573	0
252	38476	93.105671297573	1
252	38477	93.105671297573	2
252	38481	93.105717297573	1
252	38482	93.105717297573	0
252	38524	93.205671297573	1
252	38525	93.205671297573	2
252	38529	93.205717297573	1
252	38530	93.205717297573	0
252	38557	93.305671297573	1
252	38558	93.305671297573	2
252	38562	93.305717297573	1
252	38563	93.305717297573	0
252	38593	93.405671297573	1
252	38594	93.405671297573	2
252	38598	93.405717297573	1
252	38599	93.405717297573	0
252	38641	93.505671297573	1
252	38642	93.505671297573	2
252	38646	93.505717297573	1
252	38647	93.505717297573	0
252	38677	93.605671297573	1
252	38678	93.605671297573	2
252	38682	93.605717297573	1
252	38683	93.605717297573	0
252	38725	93.705671297573	1
252	38726	93.705671297573	2
252	38730	93.705717297573	1
252	38731	93.705717297573	0
252	38758	93.805671297573	1
252	38759	93.805671297573	2
252	38763	93.805717297573	1
252	38764	93.805717297573	0
252	38796	93.905671297573	1
252	38797	93.905671297573	2
252	38801	93.905717297573	1
252	38802	93.905717297573	0
252	38844	94.005671297573	1
252	38845	94.005671297573	2
252	38849	94.005717297573	1
252	38850	94.005717297573	0
252	38880	94.105671297573	1
252	38881	94.105671297573	2
252	38885	94.105717297573	1
252	38886	94.105717297573	0
252	38928	94.205671297573	1
252	38929	94.205671297573	2
252	38933	94.205717297573	1
252	38934	94.205717297573	0
252	38961	94.305671297573	1
252	38962	94.305671297573	2
252	38966	94.305717297573	1
252	38967	94.305717297573	0
252	38997	94.405671297573	1
252	38998	94.405671297573	2
252	39002	94.405717297573	1
252	39003	94.405717297573	0
252	39045	94.505671297573	1
252	39046	94.505671297573	2
252	39050	94.505717297573	1
252	39051	94.505717297573	0
252	39081	94.605671297573	1
252	39082	94.605671297573	2
252	39086	94.605717297573	1
252	39087	94.605717297573	0
252	39129	94.705671297573	1
252	39130	94.705671297573	2
252	39134	94.705717297573	1
252	39135	94.705717297573	0
252	39162	94.805671297573	1
252	39163	94.805671297573	2
252	39167	94.805717297573	1
252	39168	94.805717297573	0
252	39198	94.905671297573	1
252	39199	94.905671297573	2
252	39203	94.905717297573	1
252	39204	94.905717297573	0
252	39246	95.005671297573	1
252	39247	95.005671297573	2
252	39251	95.005717297573	1
252	39252	95.005717297573	0
252	39284	95.105671297573	1
252	39285	95.105671297573	2
252	39289	95.105717297573	1
252	39290	95.105717297573	0
252	39332	95.205671297573	1
252	39333	95.205671297573	2
252	39337	95.205717297573	1
252	39338	95.205717297573	0
252	39365	95.305671297573	1
252	39366	95.305671297573	2
252	39370	95.305717297573	1
252	39371	95.305717297573	0
252	39401	95.405671297573	1
252	39402	95.405671297573	2
252	39406	95.405717297573	1
252	39407	95.405717297573	0
252	39449	95.505671297573	1
252	39450	95.505671297573	2
252	39454	95.505717297573	1
252	39455	95.505717297573	0
252	39485	95.605671297573	1
252	39486	95.605671297573	2
252	39490	95.605717297573	1
252	39491	95.605717297573	0
252	39533	95.705671297573	1
252	39534	95.705671297573	2
252	39538	95.705717297573	1
252	39539	95.705717297573	0
252	39566	95.805671297573	1
252	39567	95.805671297573	2
252	39571	95.805717297573	1
252	39572	95.805717297573	0
252	39602	95.905671297573	1
252	39603	95.905671297573	2
252	39607	95.905717297573	1
252	39608	95.905717297573	0
252	39650	96.005671297573	1
252	39651	96.005671297573	2
252	39655	96.005717297573	1
252	39656	96.005717297573	0
252	39686	96.105671297573	1
252	39687	96.105671297573	2
252	39691	96.105717297573	1
252	39692	96.105717297573	0
252	39734	96.205671297573	1
252	39735	96.205671297573	2
252	39739	96.205717297573	1
252	39740	96.205717297573	0
252	39767	96.305671297573	1
252	39768	96.305671297573	2
252	39772	96.305717297573	1
252	39773	96.305717297573	0
252	39805	96.405671297573	1
252	39806	96.405671297573	2
252	39810	96.405717297573	1
252	39811	96.405717297573	0
252	39853	96.505671297573	1
252	39854	96.505671297573	2
252	39858	96.505717297573	1
252	39859	96.505717297573	0
252	39889	96.605671297573	1
252	39890	96.605671297573	2
252	39894	96.605717297573	1
252	39895	96.605717297573	0
252	39937	96.705671297573	1
252	39938	96.705671297573	2
252	39942	96.705717297573	1
252	39943	96.705717297573	0
252	39970	96.805671297573	1
252	39971	96.805671297573	2
252	39975	96.805717297573	1
252	39976	96.805717297573	0
252	40006	96.905671297573	1
252	40007	96.905671297573	2
252	40011	96.905717297573	1
252	40012	96.905717297573	0
252	40054	97.005671297573	1
252	40055	97.005671297573	2
252	40059	97.005717297573	1
252	40060	97.005717297573	0
252	40090	97.105671297573	1
252	40091	97.105671297573	2
252	40095	97.105717297573	1
252	40096	97.105717297573	0
252	40138	97.205671297573	1
252	40139	97.205671297573	2
252	40143	97.205717297573	1
252	40144	97.205717297573	0
252	40171	97.305671297573	1
252	40172	97.305671297573	2
252	40176	97.305717297573	1
252	40177	97.305717297573	0
252	40207	97.405671297573	1
252	40208	97.405671297573	2
252	40212	97.405717297573	1
252	40213	97.405717297573	0
252	40255	97.505671297573	1
252	40256	97.505671297573	2
252	40260	97.505717297573	1
252	40261	97.505717297573	0
252	40293	97.605671297573	1
252	40294	97.605671297573	2
252	40298	97.605717297573	1
252	40299	97.605717297573	0
252	40341	97.705671297573	1
252	40342	97.705671297573	2
252	40346	97.705717297573	1
252	40347	97.705717297573	0
252	40374	97.805671297573	1
252	40375	97.805671297573	2
252	40379	97.805717297573	1
252	40380	97.805717297573	0
252	40410	97.905671297573	1
252	40411	97.905671297573	2
252	40415	97.905717297573	1
252	40416	97.905717297573	0
252	40458	98.005671297573	1
252	40459	98.005671297573	2
252	40463	98.005717297573	1
252	40464	98.005717297573	0
252	40494	98.105671297573	1
252	40495	98.105671297573	2
252	40499	98.105717297573	1
252	40500	98.105717297573	0
252	40542	98.205671297573	1
252	40543	98.205671297573	2
252	40547	98.205717297573	1
252	40548	98.205717297573	0
252	40575	98.305671297573	1
252	40576	98.305671297573	2
252	40580	98.305717297573	1
252	40581	98.305717297573	0
252	40611	98.405671297573	1
252	40612	98.405671297573	2
252	40616	98.405717297573	1
252	40617	98.405717297573	0
252	40659	98.505671297573	1
252	40660	98.505671297573	2
252	40664	98.505717297573	1
252	40665	98.505717297573	0
252	40695	98.605671297573	1
252	40696	98.605671297573	2
252	40700	98.605717297573	1
252	40701	98.605717297573	0
252	40743	98.705671297573	1
252	40744	98.705671297573	2
252	40748	98.705717297573	1
252	40749	98.705717297573	0
252	40776	98.805671297573	1
252	40777	98.805671297573	2
252	40781	98.805717297573	1
252	40782	98.805717297573	0
252	40814	98.905671297573	1
252	40815	98.905671297573	2
252	40819	98.905717297573	1
252	40820	98.905717297573	0
252	40862	99.005671297573	1
252	40863	99.005671297573	2
252	40867	99.005717297573	1
252	40868	99.005717297573	0
252	40898	99.105671297573	1
252	40899	99.105671297573	2
252	40903	99.105717297573	1
252	40904	99.105717297573	0
252	40946	99.205671297573	1
252	40947	99.205671297573	2
252	40951	99.205717297573	1
252	40952	99.205717297573	0
252	40979	99.305671297573	1
252	40980	99.305671297573	2
252	40984	99.305717297573	1
252	40985	99.305717297573	0
252	41015	99.405671297573	1
252	41016	99.405671297573	2
252	41020	99.405717297573	1
252	41021	99.405717297573	0
252	41063	99.505671297573	1
252	41064	99.505671297573	2
252	41068	99.505717297573	1
252	41069	99.505717297573	0
252	41099	99.605671297573	1
252	41100	99.605671297573	2
252	41104	99.605717297573	1
252	41105	99.605717297573	0
252	41147	99.705671297573	1
252	41148	99.705671297573	2
252	41152	99.705717297573	1
252	41153	99.705717297573	0
252	41180	99.805671297573	1
252	41181	99.805671297573	2
252	41185	99.805717297573	1
252	41186	99.805717297573	0
252	41216	99.905671297573	1
252	41217	99.905671297573	2
252	41221	99.905717297573	1
252	41222	99.905717297573	0
253	0	0	3

