version 3
run General-0-20250724-18:33:15-850769
attr configname General
attr datetime 20250724-18:33:15
attr datetimef 20250724-183315
attr experiment General
attr inifile omnetpp.ini
attr iterationvars ""
attr iterationvarsd ""
attr iterationvarsf ""
attr measurement ""
attr network HandoverShowcase
attr processid 850769
attr repetition 0
attr replication #0
attr resultdir results
attr runnumber 0
attr seedset 0
config image-path ../../../images
config network HandoverShowcase
config sim-time-limit 100s
config **.mgmt.numChannels 5
config **.ap1.wlan[*].mgmt.ssid "\"AP1\""
config **.ap2.wlan[*].mgmt.ssid "\"AP2\""
config **.ap*.wlan[*].mgmt.beaconInterval 100ms
config *.host1.mobility.typename LinearMobility
config *.host1.mobility.speed 10mps
config *.host1.mobility.initialMovementHeading 0deg
config *.host1.mobility.updateInterval 100ms
config *.host1.mobility.constraintAreaMinX 40m
config *.host1.mobility.constraintAreaMaxX 600m
config **.analogModel.ignorePartialInterference true
config **.ap1.wlan[*].radio.channelNumber 2
config **.ap2.wlan[*].radio.channelNumber 3
config **.host1.wlan[*].radio.channelNumber 0
config **.radio.transmitter.power 2.0mW
config **.networkConfiguratorModule "\"\""
config **.wlan[*].agent.activeScan true
config **.wlan[*].agent.defaultSsid "\"\""
config **.wlan[*].agent.channelsToScan "\"\""
config **.wlan[*].agent.probeDelay 0.1s
config **.wlan[*].agent.minChannelTime 0.15s
config **.wlan[*].agent.maxChannelTime 0.3s
config *.host1.numUdpApps 1
config *.host1.udpApp[0].typename UDPBasicApp
config *.host1.udpApp[0].destAddresses "\"host2\""
config *.host1.udpApp[0].destPort 1000
config *.host1.udpApp[0].messageLength 1000B
config *.host1.udpApp[0].sendInterval 0.1s
config *.host1.udpApp[0].startTime 1s
config *.host1.udpApp[0].stopTime 99s
config *.host1.udpApp[0].verbose true
config *.host1.udpApp[0].packetName "\"UDPData\""
config *.host1.udpApp[0].numPk 1000
config *.host1.udpApp[0].messageLength exponential(1000B)
config *.host2.numUdpApps 1
config *.host2.udpApp[0].typename UDPSink
config *.host2.udpApp[0].localPort 1000
config *.host2.udpApp[0].verbose true
config *.host1.numTcpApps 1
config *.host1.tcpApp[0].typename TcpBasicClient
config *.host1.tcpApp[0].connectAddress "\"host2\""
config *.host1.tcpApp[0].connectPort 2000
config *.host1.tcpApp[0].startTime 1s
config *.host1.tcpApp[0].stopTime 99s
config *.host1.tcpApp[0].verbose true
config *.host1.tcpApp[0].messageLength 1000B
config *.host1.tcpApp[0].sendBytes 1000000
config *.host2.numTcpApps 1
config *.host2.tcpApp[0].typename TcpBasicServer
config *.host2.tcpApp[0].localPort 2000
config *.host2.tcpApp[0].verbose true
config **.verbose true
config **.debug true
config *.host1.udpApp[0].verbose true
config *.host1.tcpApp[0].verbose true
config *.host2.udpApp[0].verbose true
config *.host2.tcpApp[0].verbose true
config *.visualizer.physicalLinkVisualizer.displayLinks true
config *.ap*.wlan[*].radio.displayCommunicationRange true

par HandoverShowcase.visualizer.sceneVisualizer typename "\"inet.visualizer.canvas.scene.SceneCanvasVisualizer\""
par HandoverShowcase.visualizer.sceneVisualizer visualizationTargetModule "\"^.^\""
par HandoverShowcase.visualizer.sceneVisualizer visualizationSubjectModule "\"^.^\""
par HandoverShowcase.visualizer.sceneVisualizer tags "\"\""
par HandoverShowcase.visualizer.sceneVisualizer physicalEnvironmentModule "\"physicalEnvironment\""
par HandoverShowcase.visualizer.sceneVisualizer networkNodeVisualizerModule "\"^.networkNodeVisualizer\""
par HandoverShowcase.visualizer.sceneVisualizer axisLength "nan m"
attr mutable ""
attr unit m
par HandoverShowcase.visualizer.sceneVisualizer animationSpeed 0
par HandoverShowcase.visualizer.sceneVisualizer sceneMinX "nan m"
attr unit m
par HandoverShowcase.visualizer.sceneVisualizer sceneMinY "nan m"
attr unit m
par HandoverShowcase.visualizer.sceneVisualizer sceneMinZ "nan m"
attr unit m
par HandoverShowcase.visualizer.sceneVisualizer sceneMaxX "nan m"
attr unit m
par HandoverShowcase.visualizer.sceneVisualizer sceneMaxY "nan m"
attr unit m
par HandoverShowcase.visualizer.sceneVisualizer sceneMaxZ "nan m"
attr unit m
par HandoverShowcase.visualizer.sceneVisualizer zIndex 0
par HandoverShowcase.visualizer.sceneVisualizer viewAngle "\"x right y down z out\""
attr mutable ""
par HandoverShowcase.visualizer.sceneVisualizer viewScale "\"1 1\""
attr mutable ""
par HandoverShowcase.visualizer.sceneVisualizer viewTranslation "\"0 0\""
attr mutable ""
par HandoverShowcase.visualizer.sceneVisualizer descriptionFigure "\"\""
par HandoverShowcase.visualizer.physicalEnvironmentVisualizer typename "\"inet.visualizer.canvas.environment.PhysicalEnvironmentCanvasVisualizer\""
par HandoverShowcase.visualizer.physicalEnvironmentVisualizer visualizationTargetModule "\"^.^\""
par HandoverShowcase.visualizer.physicalEnvironmentVisualizer visualizationSubjectModule "\"^.^\""
par HandoverShowcase.visualizer.physicalEnvironmentVisualizer tags "\"\""
par HandoverShowcase.visualizer.physicalEnvironmentVisualizer physicalEnvironmentModule "\"physicalEnvironment\""
par HandoverShowcase.visualizer.physicalEnvironmentVisualizer displayObjects true
par HandoverShowcase.visualizer.physicalEnvironmentVisualizer zIndex 0
par HandoverShowcase.visualizer.networkNodeVisualizer typename "\"inet.visualizer.canvas.scene.NetworkNodeCanvasVisualizer\""
par HandoverShowcase.visualizer.networkNodeVisualizer visualizationTargetModule "\"^.^\""
par HandoverShowcase.visualizer.networkNodeVisualizer visualizationSubjectModule "\"^.^\""
par HandoverShowcase.visualizer.networkNodeVisualizer tags "\"\""
par HandoverShowcase.visualizer.networkNodeVisualizer nodeFilter "\"*\""
attr mutable ""
par HandoverShowcase.visualizer.networkNodeVisualizer annotationSpacing 4
par HandoverShowcase.visualizer.networkNodeVisualizer placementPenalty 10
par HandoverShowcase.visualizer.networkNodeVisualizer zIndex 0
par HandoverShowcase.visualizer.networkConnectionVisualizer typename "\"inet.visualizer.canvas.scene.NetworkConnectionCanvasVisualizer\""
par HandoverShowcase.visualizer.networkConnectionVisualizer visualizationTargetModule "\"^.^\""
par HandoverShowcase.visualizer.networkConnectionVisualizer visualizationSubjectModule "\"^.^\""
par HandoverShowcase.visualizer.networkConnectionVisualizer tags "\"\""
par HandoverShowcase.visualizer.networkConnectionVisualizer displayNetworkConnections true
par HandoverShowcase.visualizer.networkConnectionVisualizer nodeFilter "\"\""
attr mutable ""
par HandoverShowcase.visualizer.networkConnectionVisualizer lineColor "\"black\""
par HandoverShowcase.visualizer.networkConnectionVisualizer lineStyle "\"solid\""
par HandoverShowcase.visualizer.networkConnectionVisualizer lineWidth 1
par HandoverShowcase.visualizer.networkConnectionVisualizer zIndex 0
par HandoverShowcase.visualizer.mobilityVisualizer typename "\"inet.visualizer.canvas.mobility.MobilityCanvasVisualizer\""
par HandoverShowcase.visualizer.mobilityVisualizer visualizationTargetModule "\"^.^\""
par HandoverShowcase.visualizer.mobilityVisualizer visualizationSubjectModule "\"^.^\""
par HandoverShowcase.visualizer.mobilityVisualizer tags "\"\""
par HandoverShowcase.visualizer.mobilityVisualizer networkNodeVisualizerModule "\"^.networkNodeVisualizer\""
par HandoverShowcase.visualizer.mobilityVisualizer displayMobility true
par HandoverShowcase.visualizer.mobilityVisualizer animationSpeed 0
par HandoverShowcase.visualizer.mobilityVisualizer moduleFilter "\"**.mobility\""
attr mutable ""
par HandoverShowcase.visualizer.mobilityVisualizer displayPositions false
par HandoverShowcase.visualizer.mobilityVisualizer positionCircleRadius 4
par HandoverShowcase.visualizer.mobilityVisualizer positionCircleLineWidth 1
par HandoverShowcase.visualizer.mobilityVisualizer positionCircleLineColor "\"dark\""
par HandoverShowcase.visualizer.mobilityVisualizer positionCircleFillColor "\"dark\""
par HandoverShowcase.visualizer.mobilityVisualizer displayOrientations false
par HandoverShowcase.visualizer.mobilityVisualizer orientationPieRadius 32
par HandoverShowcase.visualizer.mobilityVisualizer orientationPieSize 0.2
par HandoverShowcase.visualizer.mobilityVisualizer orientationPieOpacity 0.25
par HandoverShowcase.visualizer.mobilityVisualizer orientationLineColor "\"black\""
par HandoverShowcase.visualizer.mobilityVisualizer orientationLineStyle "\"solid\""
par HandoverShowcase.visualizer.mobilityVisualizer orientationLineWidth 1
par HandoverShowcase.visualizer.mobilityVisualizer orientationFillColor "\"blue\""
par HandoverShowcase.visualizer.mobilityVisualizer displayVelocities false
par HandoverShowcase.visualizer.mobilityVisualizer velocityArrowScale 1
par HandoverShowcase.visualizer.mobilityVisualizer velocityLineColor "\"black\""
par HandoverShowcase.visualizer.mobilityVisualizer velocityLineStyle "\"solid\""
par HandoverShowcase.visualizer.mobilityVisualizer velocityLineWidth 1
par HandoverShowcase.visualizer.mobilityVisualizer displayMovementTrails false
par HandoverShowcase.visualizer.mobilityVisualizer movementTrailLineColor "\"dark\""
par HandoverShowcase.visualizer.mobilityVisualizer movementTrailLineStyle "\"solid\""
par HandoverShowcase.visualizer.mobilityVisualizer movementTrailLineWidth 1
par HandoverShowcase.visualizer.mobilityVisualizer trailLength 100
par HandoverShowcase.visualizer.mobilityVisualizer zIndex 0
par HandoverShowcase.visualizer.statisticVisualizer typename "\"inet.visualizer.canvas.common.StatisticCanvasVisualizer\""
par HandoverShowcase.visualizer.statisticVisualizer visualizationTargetModule "\"^.^\""
par HandoverShowcase.visualizer.statisticVisualizer visualizationSubjectModule "\"^.^\""
par HandoverShowcase.visualizer.statisticVisualizer tags "\"\""
par HandoverShowcase.visualizer.statisticVisualizer networkNodeVisualizerModule "\"^.networkNodeVisualizer\""
par HandoverShowcase.visualizer.statisticVisualizer displayStatistics true
par HandoverShowcase.visualizer.statisticVisualizer signalName "\"\""
par HandoverShowcase.visualizer.statisticVisualizer statisticName "\"\""
par HandoverShowcase.visualizer.statisticVisualizer statisticUnit "\"\""
par HandoverShowcase.visualizer.statisticVisualizer statisticExpression "\"\""
par HandoverShowcase.visualizer.statisticVisualizer sourceFilter "\"**\""
attr mutable ""
par HandoverShowcase.visualizer.statisticVisualizer format "\"%n: %v %u\""
attr mutable ""
par HandoverShowcase.visualizer.statisticVisualizer unit "\"\""
par HandoverShowcase.visualizer.statisticVisualizer font "\"<default>\""
par HandoverShowcase.visualizer.statisticVisualizer textColor "\"black\""
par HandoverShowcase.visualizer.statisticVisualizer backgroundColor "\"white\""
par HandoverShowcase.visualizer.statisticVisualizer opacity 1
par HandoverShowcase.visualizer.statisticVisualizer placementHint "\"top\""
par HandoverShowcase.visualizer.statisticVisualizer placementPriority 0
par HandoverShowcase.visualizer.statisticVisualizer zIndex 10
par HandoverShowcase.visualizer.statisticVisualizer propertyName "\"\""
par HandoverShowcase.visualizer.statisticVisualizer propertyIndex "\"\""
par HandoverShowcase.visualizer.infoVisualizer typename "\"inet.visualizer.canvas.common.InfoCanvasVisualizer\""
par HandoverShowcase.visualizer.infoVisualizer visualizationTargetModule "\"^.^\""
par HandoverShowcase.visualizer.infoVisualizer visualizationSubjectModule "\"^.^\""
par HandoverShowcase.visualizer.infoVisualizer tags "\"\""
par HandoverShowcase.visualizer.infoVisualizer networkNodeVisualizerModule "\"^.networkNodeVisualizer\""
par HandoverShowcase.visualizer.infoVisualizer displayInfos true
par HandoverShowcase.visualizer.infoVisualizer modules "\"\""
attr mutable ""
par HandoverShowcase.visualizer.infoVisualizer format "\"%t\""
attr mutable ""
par HandoverShowcase.visualizer.infoVisualizer font "\"<default>\""
par HandoverShowcase.visualizer.infoVisualizer textColor "\"black\""
par HandoverShowcase.visualizer.infoVisualizer backgroundColor "\"white\""
par HandoverShowcase.visualizer.infoVisualizer opacity 1
par HandoverShowcase.visualizer.infoVisualizer placementHint "\"top\""
par HandoverShowcase.visualizer.infoVisualizer placementPriority 0
par HandoverShowcase.visualizer.infoVisualizer zIndex 10
par HandoverShowcase.visualizer.energyStorageVisualizer typename "\"inet.visualizer.canvas.power.EnergyStorageCanvasVisualizer\""
par HandoverShowcase.visualizer.energyStorageVisualizer visualizationTargetModule "\"^.^\""
par HandoverShowcase.visualizer.energyStorageVisualizer visualizationSubjectModule "\"^.^\""
par HandoverShowcase.visualizer.energyStorageVisualizer tags "\"\""
par HandoverShowcase.visualizer.energyStorageVisualizer networkNodeVisualizerModule "\"^.networkNodeVisualizer\""
par HandoverShowcase.visualizer.energyStorageVisualizer displayEnergyStorages false
par HandoverShowcase.visualizer.energyStorageVisualizer energyStorageFilter "\"**\""
par HandoverShowcase.visualizer.energyStorageVisualizer color "\"green\""
par HandoverShowcase.visualizer.energyStorageVisualizer width 8
par HandoverShowcase.visualizer.energyStorageVisualizer height 24
par HandoverShowcase.visualizer.energyStorageVisualizer spacing 2
par HandoverShowcase.visualizer.energyStorageVisualizer placementHint "\"right\""
par HandoverShowcase.visualizer.energyStorageVisualizer placementPriority 0
par HandoverShowcase.visualizer.energyStorageVisualizer zIndex 10
par HandoverShowcase.visualizer.mediumVisualizer typename "\"inet.visualizer.canvas.physicallayer.MediumCanvasVisualizer\""
par HandoverShowcase.visualizer.mediumVisualizer visualizationTargetModule "\"^.^\""
par HandoverShowcase.visualizer.mediumVisualizer visualizationSubjectModule "\"^.^\""
par HandoverShowcase.visualizer.mediumVisualizer tags "\"\""
par HandoverShowcase.visualizer.mediumVisualizer mediumModule "\"radioMedium\""
par HandoverShowcase.visualizer.mediumVisualizer networkNodeVisualizerModule "\"^.networkNodeVisualizer\""
par HandoverShowcase.visualizer.mediumVisualizer nodeFilter "\"*\""
attr mutable ""
par HandoverShowcase.visualizer.mediumVisualizer interfaceFilter "\"*\""
attr mutable ""
par HandoverShowcase.visualizer.mediumVisualizer packetFilter "(omnetpp::cValueHolder)holder: \"*\""
attr mutable ""
par HandoverShowcase.visualizer.mediumVisualizer displaySignals false
par HandoverShowcase.visualizer.mediumVisualizer signalColor "\"dark\""
par HandoverShowcase.visualizer.mediumVisualizer signalPropagationAnimationSpeed "nan "
attr mutable ""
par HandoverShowcase.visualizer.mediumVisualizer signalPropagationAnimationTime 1s
attr unit s
par HandoverShowcase.visualizer.mediumVisualizer signalPropagationAdditionalTime 0s
attr unit s
par HandoverShowcase.visualizer.mediumVisualizer signalTransmissionAnimationSpeed "nan "
attr mutable ""
par HandoverShowcase.visualizer.mediumVisualizer signalTransmissionAnimationTime 1s
attr unit s
par HandoverShowcase.visualizer.mediumVisualizer signalAnimationSpeedChangeTimeMode "\"realTime\""
attr enum realTime,animationTime,simulationTime
par HandoverShowcase.visualizer.mediumVisualizer signalAnimationSpeedChangeTime 1s
attr unit s
par HandoverShowcase.visualizer.mediumVisualizer displaySignalDepartures false
par HandoverShowcase.visualizer.mediumVisualizer signalDepartureImage "\"misc/signal_departure.png\""
par HandoverShowcase.visualizer.mediumVisualizer signalDeparturePlacementHint "\"topCenter\""
par HandoverShowcase.visualizer.mediumVisualizer signalDeparturePlacementPriority 1
par HandoverShowcase.visualizer.mediumVisualizer displaySignalArrivals false
par HandoverShowcase.visualizer.mediumVisualizer signalArrivalImage "\"misc/signal_arrival.png\""
par HandoverShowcase.visualizer.mediumVisualizer signalArrivalPlacementHint "\"topCenter\""
par HandoverShowcase.visualizer.mediumVisualizer signalArrivalPlacementPriority -1
par HandoverShowcase.visualizer.mediumVisualizer displayCommunicationRanges false
par HandoverShowcase.visualizer.mediumVisualizer communicationRangeLineColor "\"blue\""
par HandoverShowcase.visualizer.mediumVisualizer communicationRangeLineStyle "\"solid\""
par HandoverShowcase.visualizer.mediumVisualizer communicationRangeLineWidth 1
par HandoverShowcase.visualizer.mediumVisualizer displayInterferenceRanges false
par HandoverShowcase.visualizer.mediumVisualizer interferenceRangeLineColor "\"gray\""
par HandoverShowcase.visualizer.mediumVisualizer interferenceRangeLineStyle "\"solid\""
par HandoverShowcase.visualizer.mediumVisualizer interferenceRangeLineWidth 1
par HandoverShowcase.visualizer.mediumVisualizer autoPowerAxis true
par HandoverShowcase.visualizer.mediumVisualizer signalMinPower "inf dBmW"
attr unit dBmW
par HandoverShowcase.visualizer.mediumVisualizer signalMaxPower 0dBmW
attr unit dBmW
par HandoverShowcase.visualizer.mediumVisualizer signalMinPowerDensity "inf dBmWpMHz"
attr unit dBmWpMHz
par HandoverShowcase.visualizer.mediumVisualizer signalMaxPowerDensity "-inf dBmWpMHz"
attr unit dBmWpMHz
par HandoverShowcase.visualizer.mediumVisualizer autoTimeAxis true
par HandoverShowcase.visualizer.mediumVisualizer signalMinTime 0s
attr unit s
par HandoverShowcase.visualizer.mediumVisualizer signalMaxTime 0s
attr unit s
par HandoverShowcase.visualizer.mediumVisualizer autoFrequencyAxis true
par HandoverShowcase.visualizer.mediumVisualizer signalMinFrequency "inf Hz"
attr unit Hz
par HandoverShowcase.visualizer.mediumVisualizer signalMaxFrequency "-inf Hz"
attr unit Hz
par HandoverShowcase.visualizer.mediumVisualizer displayMainPowerDensityMap false
par HandoverShowcase.visualizer.mediumVisualizer mainPowerDensityMapPixmapDensity 1
par HandoverShowcase.visualizer.mediumVisualizer mainPowerDensityMapMinX 0
par HandoverShowcase.visualizer.mediumVisualizer mainPowerDensityMapMaxX "nan "
par HandoverShowcase.visualizer.mediumVisualizer mainPowerDensityMapMinY 0
par HandoverShowcase.visualizer.mediumVisualizer mainPowerDensityMapMaxY "nan "
par HandoverShowcase.visualizer.mediumVisualizer mainPowerDensityMapZ 0
par HandoverShowcase.visualizer.mediumVisualizer mainPowerDensityMapFigureXTickCount 3
par HandoverShowcase.visualizer.mediumVisualizer mainPowerDensityMapFigureYTickCount 3
par HandoverShowcase.visualizer.mediumVisualizer displayPowerDensityMaps false
par HandoverShowcase.visualizer.mediumVisualizer powerDensityMapMode "\"auto\""
attr enum total,signal,auto
par HandoverShowcase.visualizer.mediumVisualizer powerDensityMapPixelMode "\"mean\""
attr enum sample,partition,mean
par HandoverShowcase.visualizer.mediumVisualizer powerDensityMapApproximationSize 10
par HandoverShowcase.visualizer.mediumVisualizer powerDensityMapCenterFrequency "nan Hz"
attr mutable ""
attr unit Hz
par HandoverShowcase.visualizer.mediumVisualizer powerDensityMapBandwidth 0Hz
attr mutable ""
attr unit Hz
par HandoverShowcase.visualizer.mediumVisualizer powerDensityMapFigureWidth 200
par HandoverShowcase.visualizer.mediumVisualizer powerDensityMapFigureHeight 120
par HandoverShowcase.visualizer.mediumVisualizer powerDensityMapPixmapWidth 200
par HandoverShowcase.visualizer.mediumVisualizer powerDensityMapPixmapHeight 120
par HandoverShowcase.visualizer.mediumVisualizer powerDensityMapZ 0
par HandoverShowcase.visualizer.mediumVisualizer powerDensityMapFigureXTickCount 3
par HandoverShowcase.visualizer.mediumVisualizer powerDensityMapFigureYTickCount 3
par HandoverShowcase.visualizer.mediumVisualizer displaySpectrums false
par HandoverShowcase.visualizer.mediumVisualizer spectrumMode "\"auto\""
attr enum total,signal,auto
par HandoverShowcase.visualizer.mediumVisualizer spectrumFigureWidth 200
par HandoverShowcase.visualizer.mediumVisualizer spectrumFigureHeight 120
par HandoverShowcase.visualizer.mediumVisualizer spectrumFigureXTickCount 3
par HandoverShowcase.visualizer.mediumVisualizer spectrumFigureYTickCount 5
par HandoverShowcase.visualizer.mediumVisualizer spectrumFigureInterpolationSize 5
par HandoverShowcase.visualizer.mediumVisualizer spectrumPlacementHint "\"bottomCenter\""
par HandoverShowcase.visualizer.mediumVisualizer spectrumPlacementPriority -1
par HandoverShowcase.visualizer.mediumVisualizer displaySpectrograms false
par HandoverShowcase.visualizer.mediumVisualizer spectrogramMode "\"auto\""
attr enum total,signal,auto
par HandoverShowcase.visualizer.mediumVisualizer spectrogramPixelMode "\"mean\""
attr enum sample,partition,mean
par HandoverShowcase.visualizer.mediumVisualizer spectrogramFigureWidth 200
par HandoverShowcase.visualizer.mediumVisualizer spectrogramFigureHeight 120
par HandoverShowcase.visualizer.mediumVisualizer spectrogramPixmapWidth 200
par HandoverShowcase.visualizer.mediumVisualizer spectrogramPixmapHeight 120
par HandoverShowcase.visualizer.mediumVisualizer spectrogramFigureXTickCount 3
par HandoverShowcase.visualizer.mediumVisualizer spectrogramFigureYTickCount 5
par HandoverShowcase.visualizer.mediumVisualizer spectrogramPlacementHint "\"bottomCenter\""
par HandoverShowcase.visualizer.mediumVisualizer spectrogramPlacementPriority -1
par HandoverShowcase.visualizer.mediumVisualizer zIndex 0
par HandoverShowcase.visualizer.mediumVisualizer signalShape "\"ring\""
attr enum ring,sphere
par HandoverShowcase.visualizer.mediumVisualizer signalOpacity 0.5
par HandoverShowcase.visualizer.mediumVisualizer signalRingCount 20
par HandoverShowcase.visualizer.mediumVisualizer signalRingSize 50m
attr unit m
par HandoverShowcase.visualizer.mediumVisualizer signalFadingDistance 50m
attr unit m
par HandoverShowcase.visualizer.mediumVisualizer signalFadingFactor 1.2
par HandoverShowcase.visualizer.mediumVisualizer signalWaveCount 20
par HandoverShowcase.visualizer.mediumVisualizer signalWaveLength 50m
attr unit m
par HandoverShowcase.visualizer.mediumVisualizer signalWaveWidth 10m
attr unit m
par HandoverShowcase.visualizer.mediumVisualizer signalWaveFadingAnimationSpeedFactor 1
par HandoverShowcase.visualizer.mediumVisualizer displayCommunicationHeat false
par HandoverShowcase.visualizer.obstacleLossVisualizer typename "\"inet.visualizer.canvas.physicallayer.TracingObstacleLossCanvasVisualizer\""
par HandoverShowcase.visualizer.obstacleLossVisualizer visualizationTargetModule "\"^.^\""
par HandoverShowcase.visualizer.obstacleLossVisualizer visualizationSubjectModule "\"^.^\""
par HandoverShowcase.visualizer.obstacleLossVisualizer tags "\"\""
par HandoverShowcase.visualizer.obstacleLossVisualizer displayIntersections false
par HandoverShowcase.visualizer.obstacleLossVisualizer intersectionLineColor "\"red\""
par HandoverShowcase.visualizer.obstacleLossVisualizer intersectionLineStyle "\"solid\""
par HandoverShowcase.visualizer.obstacleLossVisualizer intersectionLineWidth 1
par HandoverShowcase.visualizer.obstacleLossVisualizer displayFaceNormalVectors false
par HandoverShowcase.visualizer.obstacleLossVisualizer faceNormalLineColor "\"grey\""
par HandoverShowcase.visualizer.obstacleLossVisualizer faceNormalLineStyle "\"solid\""
par HandoverShowcase.visualizer.obstacleLossVisualizer faceNormalLineWidth 1
par HandoverShowcase.visualizer.obstacleLossVisualizer fadeOutMode "\"realTime\""
attr enum realTime,animationTime,simulationTime
par HandoverShowcase.visualizer.obstacleLossVisualizer fadeOutTime 1s
attr unit s
par HandoverShowcase.visualizer.obstacleLossVisualizer fadeOutAnimationSpeed 0
par HandoverShowcase.visualizer.obstacleLossVisualizer zIndex 0
par HandoverShowcase.visualizer.packetDropVisualizer typename "\"inet.visualizer.canvas.common.PacketDropCanvasVisualizer\""
par HandoverShowcase.visualizer.packetDropVisualizer visualizationTargetModule "\"^.^\""
par HandoverShowcase.visualizer.packetDropVisualizer visualizationSubjectModule "\"^.^\""
par HandoverShowcase.visualizer.packetDropVisualizer tags "\"\""
par HandoverShowcase.visualizer.packetDropVisualizer displayPacketDrops false
par HandoverShowcase.visualizer.packetDropVisualizer nodeFilter "\"*\""
attr mutable ""
par HandoverShowcase.visualizer.packetDropVisualizer interfaceFilter "\"*\""
attr mutable ""
par HandoverShowcase.visualizer.packetDropVisualizer packetFilter "(omnetpp::cValueHolder)holder: \"*\""
attr mutable ""
par HandoverShowcase.visualizer.packetDropVisualizer detailsFilter "\"*\""
attr mutable ""
par HandoverShowcase.visualizer.packetDropVisualizer icon "\"msg/packet_s\""
par HandoverShowcase.visualizer.packetDropVisualizer iconTintAmount 1
par HandoverShowcase.visualizer.packetDropVisualizer iconTintColor "\"dark\""
par HandoverShowcase.visualizer.packetDropVisualizer labelFormat "\"%n\""
attr mutable ""
par HandoverShowcase.visualizer.packetDropVisualizer labelFont "\"<default>\""
par HandoverShowcase.visualizer.packetDropVisualizer labelColor "\"black\""
par HandoverShowcase.visualizer.packetDropVisualizer fadeOutMode "\"realTime\""
attr enum realTime,animationTime,simulationTime
par HandoverShowcase.visualizer.packetDropVisualizer fadeOutTime 1s
attr unit s
par HandoverShowcase.visualizer.packetDropVisualizer fadeOutAnimationSpeed 0
par HandoverShowcase.visualizer.packetDropVisualizer zIndex 10
par HandoverShowcase.visualizer.packetDropVisualizer dx 32
par HandoverShowcase.visualizer.packetDropVisualizer dy 64
par HandoverShowcase.visualizer.packetFlowVisualizer typename "\"inet.visualizer.canvas.flow.PacketFlowCanvasVisualizer\""
par HandoverShowcase.visualizer.packetFlowVisualizer visualizationTargetModule "\"^.^\""
par HandoverShowcase.visualizer.packetFlowVisualizer visualizationSubjectModule "\"^.^\""
par HandoverShowcase.visualizer.packetFlowVisualizer tags "\"\""
par HandoverShowcase.visualizer.packetFlowVisualizer displayRoutes false
par HandoverShowcase.visualizer.packetFlowVisualizer startPathSignal "\"packetFlowStarted\""
par HandoverShowcase.visualizer.packetFlowVisualizer extendPathSignal "\"packetReceivedFromLower\""
par HandoverShowcase.visualizer.packetFlowVisualizer endPathSignal "\"packetFlowEnded\""
par HandoverShowcase.visualizer.packetFlowVisualizer nodeFilter "\"*\""
attr mutable ""
par HandoverShowcase.visualizer.packetFlowVisualizer packetFilter "(omnetpp::cValueHolder)holder: \"*\""
attr mutable ""
par HandoverShowcase.visualizer.packetFlowVisualizer lineColor "\"dark\""
par HandoverShowcase.visualizer.packetFlowVisualizer lineStyle "\"dashed\""
par HandoverShowcase.visualizer.packetFlowVisualizer lineWidth 3
par HandoverShowcase.visualizer.packetFlowVisualizer lineSmooth false
par HandoverShowcase.visualizer.packetFlowVisualizer lineShift 16
par HandoverShowcase.visualizer.packetFlowVisualizer lineShiftMode "\"normal\""
par HandoverShowcase.visualizer.packetFlowVisualizer lineContactSpacing 3
par HandoverShowcase.visualizer.packetFlowVisualizer lineContactMode "\"rectangular\""
attr enum circular,rectangular
par HandoverShowcase.visualizer.packetFlowVisualizer labelFormat "\"%L %p pk (%l)\""
par HandoverShowcase.visualizer.packetFlowVisualizer labelFont "\"<default>, 8px\""
par HandoverShowcase.visualizer.packetFlowVisualizer labelColor "\"\""
par HandoverShowcase.visualizer.packetFlowVisualizer fadeOutMode "\"realTime\""
attr enum realTime,animationTime,simulationTime
par HandoverShowcase.visualizer.packetFlowVisualizer fadeOutTime 0s
attr unit s
par HandoverShowcase.visualizer.packetFlowVisualizer fadeOutAnimationSpeed 0
par HandoverShowcase.visualizer.packetFlowVisualizer zIndex 4
par HandoverShowcase.visualizer.queueVisualizer typename "\"inet.visualizer.canvas.common.QueueCanvasVisualizer\""
par HandoverShowcase.visualizer.queueVisualizer visualizationTargetModule "\"^.^\""
par HandoverShowcase.visualizer.queueVisualizer visualizationSubjectModule "\"^.^\""
par HandoverShowcase.visualizer.queueVisualizer tags "\"\""
par HandoverShowcase.visualizer.queueVisualizer networkNodeVisualizerModule "\"^.networkNodeVisualizer\""
par HandoverShowcase.visualizer.queueVisualizer displayQueues false
par HandoverShowcase.visualizer.queueVisualizer queueFilter "\"**\""
par HandoverShowcase.visualizer.queueVisualizer color "\"blue\""
par HandoverShowcase.visualizer.queueVisualizer width 8
par HandoverShowcase.visualizer.queueVisualizer height 24
par HandoverShowcase.visualizer.queueVisualizer spacing 2
par HandoverShowcase.visualizer.queueVisualizer placementHint "\"right\""
par HandoverShowcase.visualizer.queueVisualizer placementPriority 0
par HandoverShowcase.visualizer.queueVisualizer zIndex 10
par HandoverShowcase.visualizer.gateScheduleVisualizer typename "\"inet.visualizer.canvas.common.GateScheduleCanvasVisualizer\""
par HandoverShowcase.visualizer.gateScheduleVisualizer visualizationTargetModule "\"^.^\""
par HandoverShowcase.visualizer.gateScheduleVisualizer visualizationSubjectModule "\"^.^\""
par HandoverShowcase.visualizer.gateScheduleVisualizer tags "\"\""
par HandoverShowcase.visualizer.gateScheduleVisualizer networkNodeVisualizerModule "\"^.networkNodeVisualizer\""
par HandoverShowcase.visualizer.gateScheduleVisualizer displayGateSchedules false
par HandoverShowcase.visualizer.gateScheduleVisualizer labelFormat "\"%i %D\""
par HandoverShowcase.visualizer.gateScheduleVisualizer gateFilter "\"**\""
par HandoverShowcase.visualizer.gateScheduleVisualizer width 100
par HandoverShowcase.visualizer.gateScheduleVisualizer height 8
par HandoverShowcase.visualizer.gateScheduleVisualizer spacing 2
par HandoverShowcase.visualizer.gateScheduleVisualizer placementHint "\"right\""
par HandoverShowcase.visualizer.gateScheduleVisualizer placementPriority 0
par HandoverShowcase.visualizer.gateScheduleVisualizer displayDuration 0s
attr mutable ""
attr unit s
par HandoverShowcase.visualizer.gateScheduleVisualizer currentTimePosition 50
par HandoverShowcase.visualizer.gateScheduleVisualizer zIndex 10
par HandoverShowcase.visualizer.radioVisualizer typename "\"inet.visualizer.canvas.physicallayer.RadioCanvasVisualizer\""
par HandoverShowcase.visualizer.radioVisualizer visualizationTargetModule "\"^.^\""
par HandoverShowcase.visualizer.radioVisualizer visualizationSubjectModule "\"^.^\""
par HandoverShowcase.visualizer.radioVisualizer tags "\"\""
par HandoverShowcase.visualizer.radioVisualizer networkNodeVisualizerModule "\"^.networkNodeVisualizer\""
par HandoverShowcase.visualizer.radioVisualizer displayRadios false
par HandoverShowcase.visualizer.radioVisualizer displayRadioMode true
par HandoverShowcase.visualizer.radioVisualizer displayReceptionState true
par HandoverShowcase.visualizer.radioVisualizer displayTransmissionState true
par HandoverShowcase.visualizer.radioVisualizer displayAntennaLobes false
par HandoverShowcase.visualizer.radioVisualizer radioFilter "\"**\""
attr mutable ""
par HandoverShowcase.visualizer.radioVisualizer radioModeImages "\"block/process_vs block/timer_vs block/wrx_vs block/wtx_vs block/wrxtx_vs block/cogwheel_vs\""
par HandoverShowcase.visualizer.radioVisualizer receptionStateImages "\"- - misc/receiving misc/receiving\""
par HandoverShowcase.visualizer.radioVisualizer transmissionStateImages "\"- - misc/transmitting\""
par HandoverShowcase.visualizer.radioVisualizer width 16
par HandoverShowcase.visualizer.radioVisualizer height 16
par HandoverShowcase.visualizer.radioVisualizer placementHint "\"bottomRight\""
par HandoverShowcase.visualizer.radioVisualizer placementPriority 0
par HandoverShowcase.visualizer.radioVisualizer antennaLobeNormalize false
par HandoverShowcase.visualizer.radioVisualizer antennaLobeRelativeLabels false
par HandoverShowcase.visualizer.radioVisualizer antennaLobePlaneGlobal true
par HandoverShowcase.visualizer.radioVisualizer antennaLobePlane "\"view\""
attr enum view,xy,xz,yz
par HandoverShowcase.visualizer.radioVisualizer antennaLobeMode "\"logarithmic\""
attr enum logarithmic,linear
par HandoverShowcase.visualizer.radioVisualizer antennaLobeLogarithmicBase 10
par HandoverShowcase.visualizer.radioVisualizer antennaLobeLogarithmicScale 100
par HandoverShowcase.visualizer.radioVisualizer antennaLobeRadius 100
par HandoverShowcase.visualizer.radioVisualizer antennaLobeStep 10deg
attr unit deg
par HandoverShowcase.visualizer.radioVisualizer antennaLobeOpacity 0.25
par HandoverShowcase.visualizer.radioVisualizer antennaLobeLineSmooth true
par HandoverShowcase.visualizer.radioVisualizer antennaLobeLineColor "\"black\""
par HandoverShowcase.visualizer.radioVisualizer antennaLobeLineStyle "\"solid\""
par HandoverShowcase.visualizer.radioVisualizer antennaLobeLineWidth 1
par HandoverShowcase.visualizer.radioVisualizer antennaLobeFillColor "\"white\""
par HandoverShowcase.visualizer.radioVisualizer zIndex 10
par HandoverShowcase.visualizer.physicalLinkVisualizer typename "\"inet.visualizer.canvas.physicallayer.PhysicalLinkCanvasVisualizer\""
par HandoverShowcase.visualizer.physicalLinkVisualizer visualizationTargetModule "\"^.^\""
par HandoverShowcase.visualizer.physicalLinkVisualizer visualizationSubjectModule "\"^.^\""
par HandoverShowcase.visualizer.physicalLinkVisualizer tags "\"\""
par HandoverShowcase.visualizer.physicalLinkVisualizer displayLinks true
par HandoverShowcase.visualizer.physicalLinkVisualizer activityLevel "\"service\""
attr enum service,peer,protocol
par HandoverShowcase.visualizer.physicalLinkVisualizer nodeFilter "\"*\""
attr mutable ""
par HandoverShowcase.visualizer.physicalLinkVisualizer interfaceFilter "\"*\""
attr mutable ""
par HandoverShowcase.visualizer.physicalLinkVisualizer packetFilter "(omnetpp::cValueHolder)holder: \"*\""
attr mutable ""
par HandoverShowcase.visualizer.physicalLinkVisualizer lineColor "\"olive\""
par HandoverShowcase.visualizer.physicalLinkVisualizer lineStyle "\"dotted\""
par HandoverShowcase.visualizer.physicalLinkVisualizer lineWidth 3
par HandoverShowcase.visualizer.physicalLinkVisualizer lineShift 16
par HandoverShowcase.visualizer.physicalLinkVisualizer lineShiftMode "\"normal\""
par HandoverShowcase.visualizer.physicalLinkVisualizer lineContactSpacing 3
par HandoverShowcase.visualizer.physicalLinkVisualizer lineContactMode "\"rectangular\""
attr enum circular,rectangular
par HandoverShowcase.visualizer.physicalLinkVisualizer labelFormat "\"%n\""
par HandoverShowcase.visualizer.physicalLinkVisualizer labelFont "\"<default>, 8px\""
par HandoverShowcase.visualizer.physicalLinkVisualizer labelColor "\"olive\""
par HandoverShowcase.visualizer.physicalLinkVisualizer fadeOutMode "\"realTime\""
attr enum realTime,animationTime,simulationTime
par HandoverShowcase.visualizer.physicalLinkVisualizer fadeOutTime 1s
attr unit s
par HandoverShowcase.visualizer.physicalLinkVisualizer fadeOutAnimationSpeed 0
par HandoverShowcase.visualizer.physicalLinkVisualizer holdAnimationTime 0s
attr unit s
par HandoverShowcase.visualizer.physicalLinkVisualizer zIndex 1
par HandoverShowcase.visualizer.interfaceTableVisualizer typename "\"inet.visualizer.canvas.linklayer.InterfaceTableCanvasVisualizer\""
par HandoverShowcase.visualizer.interfaceTableVisualizer visualizationTargetModule "\"^.^\""
par HandoverShowcase.visualizer.interfaceTableVisualizer visualizationSubjectModule "\"^.^\""
par HandoverShowcase.visualizer.interfaceTableVisualizer tags "\"\""
par HandoverShowcase.visualizer.interfaceTableVisualizer networkNodeVisualizerModule "\"^.networkNodeVisualizer\""
par HandoverShowcase.visualizer.interfaceTableVisualizer displayInterfaceTables false
par HandoverShowcase.visualizer.interfaceTableVisualizer displayWiredInterfacesAtConnections true
par HandoverShowcase.visualizer.interfaceTableVisualizer displayBackground false
par HandoverShowcase.visualizer.interfaceTableVisualizer nodeFilter "\"*\""
attr mutable ""
par HandoverShowcase.visualizer.interfaceTableVisualizer interfaceFilter "\"not(lo*)\""
attr mutable ""
par HandoverShowcase.visualizer.interfaceTableVisualizer format "\"%N %\\\\%a%/%l\""
attr mutable ""
par HandoverShowcase.visualizer.interfaceTableVisualizer placementHint "\"top\""
par HandoverShowcase.visualizer.interfaceTableVisualizer placementPriority 0
par HandoverShowcase.visualizer.interfaceTableVisualizer font "\"<default>\""
par HandoverShowcase.visualizer.interfaceTableVisualizer textColor "\"#005030\""
par HandoverShowcase.visualizer.interfaceTableVisualizer backgroundColor "\"white\""
par HandoverShowcase.visualizer.interfaceTableVisualizer opacity 1
par HandoverShowcase.visualizer.interfaceTableVisualizer zIndex 10
par HandoverShowcase.visualizer.dataLinkVisualizer typename "\"inet.visualizer.canvas.linklayer.DataLinkCanvasVisualizer\""
par HandoverShowcase.visualizer.dataLinkVisualizer visualizationTargetModule "\"^.^\""
par HandoverShowcase.visualizer.dataLinkVisualizer visualizationSubjectModule "\"^.^\""
par HandoverShowcase.visualizer.dataLinkVisualizer tags "\"\""
par HandoverShowcase.visualizer.dataLinkVisualizer displayLinks false
par HandoverShowcase.visualizer.dataLinkVisualizer activityLevel "\"service\""
attr enum service,peer,protocol
par HandoverShowcase.visualizer.dataLinkVisualizer nodeFilter "\"*\""
attr mutable ""
par HandoverShowcase.visualizer.dataLinkVisualizer interfaceFilter "\"*\""
attr mutable ""
par HandoverShowcase.visualizer.dataLinkVisualizer packetFilter "(omnetpp::cValueHolder)holder: \"*\""
attr mutable ""
par HandoverShowcase.visualizer.dataLinkVisualizer lineColor "\"darkcyan\""
par HandoverShowcase.visualizer.dataLinkVisualizer lineStyle "\"solid\""
par HandoverShowcase.visualizer.dataLinkVisualizer lineWidth 3
par HandoverShowcase.visualizer.dataLinkVisualizer lineShift 16
par HandoverShowcase.visualizer.dataLinkVisualizer lineShiftMode "\"normal\""
par HandoverShowcase.visualizer.dataLinkVisualizer lineContactSpacing 3
par HandoverShowcase.visualizer.dataLinkVisualizer lineContactMode "\"rectangular\""
attr enum circular,rectangular
par HandoverShowcase.visualizer.dataLinkVisualizer labelFormat "\"%n\""
par HandoverShowcase.visualizer.dataLinkVisualizer labelFont "\"<default>, 8px\""
par HandoverShowcase.visualizer.dataLinkVisualizer labelColor "\"darkcyan\""
par HandoverShowcase.visualizer.dataLinkVisualizer fadeOutMode "\"realTime\""
attr enum realTime,animationTime,simulationTime
par HandoverShowcase.visualizer.dataLinkVisualizer fadeOutTime 1s
attr unit s
par HandoverShowcase.visualizer.dataLinkVisualizer fadeOutAnimationSpeed 0
par HandoverShowcase.visualizer.dataLinkVisualizer holdAnimationTime 0s
attr unit s
par HandoverShowcase.visualizer.dataLinkVisualizer zIndex 2
par HandoverShowcase.visualizer.linkBreakVisualizer typename "\"inet.visualizer.canvas.linklayer.LinkBreakCanvasVisualizer\""
par HandoverShowcase.visualizer.linkBreakVisualizer visualizationTargetModule "\"^.^\""
par HandoverShowcase.visualizer.linkBreakVisualizer visualizationSubjectModule "\"^.^\""
par HandoverShowcase.visualizer.linkBreakVisualizer tags "\"\""
par HandoverShowcase.visualizer.linkBreakVisualizer displayLinkBreaks false
par HandoverShowcase.visualizer.linkBreakVisualizer nodeFilter "\"*\""
attr mutable ""
par HandoverShowcase.visualizer.linkBreakVisualizer interfaceFilter "\"*\""
attr mutable ""
par HandoverShowcase.visualizer.linkBreakVisualizer packetFilter "(omnetpp::cValueHolder)holder: \"*\""
attr mutable ""
par HandoverShowcase.visualizer.linkBreakVisualizer icon "\"status/stop\""
par HandoverShowcase.visualizer.linkBreakVisualizer iconTintAmount 0
par HandoverShowcase.visualizer.linkBreakVisualizer iconTintColor "\"\""
par HandoverShowcase.visualizer.linkBreakVisualizer fadeOutMode "\"realTime\""
attr enum realTime,animationTime,simulationTime
par HandoverShowcase.visualizer.linkBreakVisualizer fadeOutTime 1s
attr unit s
par HandoverShowcase.visualizer.linkBreakVisualizer fadeOutAnimationSpeed 0
par HandoverShowcase.visualizer.linkBreakVisualizer zIndex 2
par HandoverShowcase.visualizer.ieee80211Visualizer typename "\"inet.visualizer.canvas.linklayer.Ieee80211CanvasVisualizer\""
par HandoverShowcase.visualizer.ieee80211Visualizer visualizationTargetModule "\"^.^\""
par HandoverShowcase.visualizer.ieee80211Visualizer visualizationSubjectModule "\"^.^\""
par HandoverShowcase.visualizer.ieee80211Visualizer tags "\"\""
par HandoverShowcase.visualizer.ieee80211Visualizer networkNodeVisualizerModule "\"^.networkNodeVisualizer\""
par HandoverShowcase.visualizer.ieee80211Visualizer displayAssociations false
par HandoverShowcase.visualizer.ieee80211Visualizer nodeFilter "\"*\""
attr mutable ""
par HandoverShowcase.visualizer.ieee80211Visualizer interfaceFilter "\"*\""
attr mutable ""
par HandoverShowcase.visualizer.ieee80211Visualizer minPower -85dBm
attr unit dBm
par HandoverShowcase.visualizer.ieee80211Visualizer maxPower -50dBm
attr unit dBm
par HandoverShowcase.visualizer.ieee80211Visualizer icons "\"misc/signal_power_0 misc/signal_power_1 misc/signal_power_2 misc/signal_power_3\""
par HandoverShowcase.visualizer.ieee80211Visualizer iconColor "\"dark\""
par HandoverShowcase.visualizer.ieee80211Visualizer labelFont "\"<default>\""
par HandoverShowcase.visualizer.ieee80211Visualizer labelColor "\"black\""
par HandoverShowcase.visualizer.ieee80211Visualizer placementHint "\"top\""
par HandoverShowcase.visualizer.ieee80211Visualizer placementPriority 0
par HandoverShowcase.visualizer.ieee80211Visualizer zIndex 2
par HandoverShowcase.visualizer.networkRouteVisualizer typename "\"inet.visualizer.canvas.networklayer.NetworkRouteCanvasVisualizer\""
par HandoverShowcase.visualizer.networkRouteVisualizer visualizationTargetModule "\"^.^\""
par HandoverShowcase.visualizer.networkRouteVisualizer visualizationSubjectModule "\"^.^\""
par HandoverShowcase.visualizer.networkRouteVisualizer tags "\"\""
par HandoverShowcase.visualizer.networkRouteVisualizer displayRoutes false
par HandoverShowcase.visualizer.networkRouteVisualizer startPathSignal "\"packetReceivedFromUpper\""
par HandoverShowcase.visualizer.networkRouteVisualizer extendPathSignal "\"packetReceivedFromLower\""
par HandoverShowcase.visualizer.networkRouteVisualizer endPathSignal "\"packetSentToUpper\""
par HandoverShowcase.visualizer.networkRouteVisualizer nodeFilter "\"*\""
attr mutable ""
par HandoverShowcase.visualizer.networkRouteVisualizer packetFilter "(omnetpp::cValueHolder)holder: \"*\""
attr mutable ""
par HandoverShowcase.visualizer.networkRouteVisualizer lineColor "\"dark\""
par HandoverShowcase.visualizer.networkRouteVisualizer lineStyle "\"solid\""
par HandoverShowcase.visualizer.networkRouteVisualizer lineWidth 3
par HandoverShowcase.visualizer.networkRouteVisualizer lineSmooth false
par HandoverShowcase.visualizer.networkRouteVisualizer lineShift 16
par HandoverShowcase.visualizer.networkRouteVisualizer lineShiftMode "\"normal\""
par HandoverShowcase.visualizer.networkRouteVisualizer lineContactSpacing 3
par HandoverShowcase.visualizer.networkRouteVisualizer lineContactMode "\"rectangular\""
attr enum circular,rectangular
par HandoverShowcase.visualizer.networkRouteVisualizer labelFormat "\"%n\""
par HandoverShowcase.visualizer.networkRouteVisualizer labelFont "\"<default>, 8px\""
par HandoverShowcase.visualizer.networkRouteVisualizer labelColor "\"\""
par HandoverShowcase.visualizer.networkRouteVisualizer fadeOutMode "\"realTime\""
attr enum realTime,animationTime,simulationTime
par HandoverShowcase.visualizer.networkRouteVisualizer fadeOutTime 1s
attr unit s
par HandoverShowcase.visualizer.networkRouteVisualizer fadeOutAnimationSpeed 0
par HandoverShowcase.visualizer.networkRouteVisualizer zIndex 3
par HandoverShowcase.visualizer.routingTableVisualizer typename "\"inet.visualizer.canvas.networklayer.RoutingTableCanvasVisualizer\""
par HandoverShowcase.visualizer.routingTableVisualizer visualizationTargetModule "\"^.^\""
par HandoverShowcase.visualizer.routingTableVisualizer visualizationSubjectModule "\"^.^\""
par HandoverShowcase.visualizer.routingTableVisualizer tags "\"\""
par HandoverShowcase.visualizer.routingTableVisualizer displayRoutingTables false
par HandoverShowcase.visualizer.routingTableVisualizer displayRoutesIndividually true
par HandoverShowcase.visualizer.routingTableVisualizer displayLabels true
par HandoverShowcase.visualizer.routingTableVisualizer destinationFilter "\"*\""
attr mutable ""
par HandoverShowcase.visualizer.routingTableVisualizer nodeFilter "\"*\""
attr mutable ""
par HandoverShowcase.visualizer.routingTableVisualizer lineColor "\"black\""
par HandoverShowcase.visualizer.routingTableVisualizer lineStyle "\"solid\""
par HandoverShowcase.visualizer.routingTableVisualizer lineWidth 2
par HandoverShowcase.visualizer.routingTableVisualizer lineShift 16
par HandoverShowcase.visualizer.routingTableVisualizer lineShiftMode "\"normal\""
par HandoverShowcase.visualizer.routingTableVisualizer lineContactSpacing 3
par HandoverShowcase.visualizer.routingTableVisualizer lineContactMode "\"rectangular\""
attr enum circular,rectangular
par HandoverShowcase.visualizer.routingTableVisualizer labelFormat "\"%d/%m -> %g (%n)\""
attr mutable ""
par HandoverShowcase.visualizer.routingTableVisualizer labelFont "\"<default>, 8px\""
par HandoverShowcase.visualizer.routingTableVisualizer labelColor "\"black\""
par HandoverShowcase.visualizer.routingTableVisualizer zIndex 0
par HandoverShowcase.visualizer.transportRouteVisualizer typename "\"inet.visualizer.canvas.transportlayer.TransportRouteCanvasVisualizer\""
par HandoverShowcase.visualizer.transportRouteVisualizer visualizationTargetModule "\"^.^\""
par HandoverShowcase.visualizer.transportRouteVisualizer visualizationSubjectModule "\"^.^\""
par HandoverShowcase.visualizer.transportRouteVisualizer tags "\"\""
par HandoverShowcase.visualizer.transportRouteVisualizer displayRoutes false
par HandoverShowcase.visualizer.transportRouteVisualizer startPathSignal "\"packetReceivedFromUpper\""
par HandoverShowcase.visualizer.transportRouteVisualizer extendPathSignal "\"packetReceivedFromLower\""
par HandoverShowcase.visualizer.transportRouteVisualizer endPathSignal "\"packetSentToUpper\""
par HandoverShowcase.visualizer.transportRouteVisualizer nodeFilter "\"*\""
attr mutable ""
par HandoverShowcase.visualizer.transportRouteVisualizer packetFilter "(omnetpp::cValueHolder)holder: \"*\""
attr mutable ""
par HandoverShowcase.visualizer.transportRouteVisualizer lineColor "\"dark\""
par HandoverShowcase.visualizer.transportRouteVisualizer lineStyle "\"solid\""
par HandoverShowcase.visualizer.transportRouteVisualizer lineWidth 3
par HandoverShowcase.visualizer.transportRouteVisualizer lineSmooth false
par HandoverShowcase.visualizer.transportRouteVisualizer lineShift 16
par HandoverShowcase.visualizer.transportRouteVisualizer lineShiftMode "\"normal\""
par HandoverShowcase.visualizer.transportRouteVisualizer lineContactSpacing 3
par HandoverShowcase.visualizer.transportRouteVisualizer lineContactMode "\"rectangular\""
attr enum circular,rectangular
par HandoverShowcase.visualizer.transportRouteVisualizer labelFormat "\"%n\""
par HandoverShowcase.visualizer.transportRouteVisualizer labelFont "\"<default>, 8px\""
par HandoverShowcase.visualizer.transportRouteVisualizer labelColor "\"\""
par HandoverShowcase.visualizer.transportRouteVisualizer fadeOutMode "\"realTime\""
attr enum realTime,animationTime,simulationTime
par HandoverShowcase.visualizer.transportRouteVisualizer fadeOutTime 1s
attr unit s
par HandoverShowcase.visualizer.transportRouteVisualizer fadeOutAnimationSpeed 0
par HandoverShowcase.visualizer.transportRouteVisualizer zIndex 4
par HandoverShowcase.visualizer.transportConnectionVisualizer typename "\"inet.visualizer.canvas.transportlayer.TransportConnectionCanvasVisualizer\""
par HandoverShowcase.visualizer.transportConnectionVisualizer visualizationTargetModule "\"^.^\""
par HandoverShowcase.visualizer.transportConnectionVisualizer visualizationSubjectModule "\"^.^\""
par HandoverShowcase.visualizer.transportConnectionVisualizer tags "\"\""
par HandoverShowcase.visualizer.transportConnectionVisualizer networkNodeVisualizerModule "\"^.networkNodeVisualizer\""
par HandoverShowcase.visualizer.transportConnectionVisualizer displayTransportConnections false
par HandoverShowcase.visualizer.transportConnectionVisualizer sourceNodeFilter "\"*\""
attr mutable ""
par HandoverShowcase.visualizer.transportConnectionVisualizer sourcePortFilter "\"*\""
attr mutable ""
par HandoverShowcase.visualizer.transportConnectionVisualizer destinationNodeFilter "\"*\""
attr mutable ""
par HandoverShowcase.visualizer.transportConnectionVisualizer destinationPortFilter "\"*\""
attr mutable ""
par HandoverShowcase.visualizer.transportConnectionVisualizer icon "\"misc/marker_s\""
par HandoverShowcase.visualizer.transportConnectionVisualizer iconColor "\"dark\""
par HandoverShowcase.visualizer.transportConnectionVisualizer labelFont "\"<default>\""
par HandoverShowcase.visualizer.transportConnectionVisualizer labelColor "\"black\""
par HandoverShowcase.visualizer.transportConnectionVisualizer placementHint "\"top\""
par HandoverShowcase.visualizer.transportConnectionVisualizer placementPriority 0
par HandoverShowcase.visualizer.transportConnectionVisualizer zIndex 4
par HandoverShowcase.visualizer.failureProtectionConfigurationVisualizer typename "\"inet.visualizer.canvas.configurator.FailureProtectionConfigurationCanvasVisualizer\""
par HandoverShowcase.visualizer.failureProtectionConfigurationVisualizer visualizationTargetModule "\"^.^\""
par HandoverShowcase.visualizer.failureProtectionConfigurationVisualizer visualizationSubjectModule "\"^.^\""
par HandoverShowcase.visualizer.failureProtectionConfigurationVisualizer tags "\"\""
par HandoverShowcase.visualizer.failureProtectionConfigurationVisualizer displayTrees false
par HandoverShowcase.visualizer.failureProtectionConfigurationVisualizer lineColor "\"dark\""
par HandoverShowcase.visualizer.failureProtectionConfigurationVisualizer lineStyle "\"solid\""
par HandoverShowcase.visualizer.failureProtectionConfigurationVisualizer lineWidth 3
par HandoverShowcase.visualizer.failureProtectionConfigurationVisualizer lineSmooth false
par HandoverShowcase.visualizer.failureProtectionConfigurationVisualizer lineShift 16
par HandoverShowcase.visualizer.failureProtectionConfigurationVisualizer lineShiftMode "\"normal\""
par HandoverShowcase.visualizer.failureProtectionConfigurationVisualizer lineContactSpacing 3
par HandoverShowcase.visualizer.failureProtectionConfigurationVisualizer lineContactMode "\"rectangular\""
attr enum circular,rectangular
par HandoverShowcase.visualizer.failureProtectionConfigurationVisualizer failureProtectionConfiguratorModule "\"failureProtectionConfigurator\""
par HandoverShowcase.visualizer.failureProtectionConfigurationVisualizer streamFilter "\"*\""
par HandoverShowcase.visualizer.failureProtectionConfigurationVisualizer zIndex 3
par HandoverShowcase.visualizer.streamRedundancyConfigurationVisualizer typename "\"inet.visualizer.canvas.configurator.StreamRedundancyConfigurationCanvasVisualizer\""
par HandoverShowcase.visualizer.streamRedundancyConfigurationVisualizer visualizationTargetModule "\"^.^\""
par HandoverShowcase.visualizer.streamRedundancyConfigurationVisualizer visualizationSubjectModule "\"^.^\""
par HandoverShowcase.visualizer.streamRedundancyConfigurationVisualizer tags "\"\""
par HandoverShowcase.visualizer.streamRedundancyConfigurationVisualizer displayTrees false
par HandoverShowcase.visualizer.streamRedundancyConfigurationVisualizer lineColor "\"dark\""
par HandoverShowcase.visualizer.streamRedundancyConfigurationVisualizer lineStyle "\"solid\""
par HandoverShowcase.visualizer.streamRedundancyConfigurationVisualizer lineWidth 3
par HandoverShowcase.visualizer.streamRedundancyConfigurationVisualizer lineSmooth false
par HandoverShowcase.visualizer.streamRedundancyConfigurationVisualizer lineShift 16
par HandoverShowcase.visualizer.streamRedundancyConfigurationVisualizer lineShiftMode "\"normal\""
par HandoverShowcase.visualizer.streamRedundancyConfigurationVisualizer lineContactSpacing 3
par HandoverShowcase.visualizer.streamRedundancyConfigurationVisualizer lineContactMode "\"rectangular\""
attr enum circular,rectangular
par HandoverShowcase.visualizer.streamRedundancyConfigurationVisualizer streamRedundancyConfiguratorModule "\"streamRedundancyConfigurator\""
par HandoverShowcase.visualizer.streamRedundancyConfigurationVisualizer streamFilter "\"*\""
par HandoverShowcase.visualizer.streamRedundancyConfigurationVisualizer zIndex 3
par HandoverShowcase.visualizer typename "\"inet.visualizer.canvas.integrated.IntegratedCanvasVisualizer\""
par HandoverShowcase.radioMedium.propagation typename "\"inet.physicallayer.wireless.common.propagation.ConstantSpeedPropagation\""
par HandoverShowcase.radioMedium.propagation propagationSpeed 2.99792e+08mps
attr unit mps
par HandoverShowcase.radioMedium.propagation ignoreMovementDuringTransmission true
par HandoverShowcase.radioMedium.propagation ignoreMovementDuringPropagation true
par HandoverShowcase.radioMedium.propagation ignoreMovementDuringReception true
scalar HandoverShowcase.radioMedium.propagation "Arrival computation count" 7371
par HandoverShowcase.radioMedium.analogModel typename "\"inet.physicallayer.wireless.common.analogmodel.packetlevel.ScalarAnalogModel\""
par HandoverShowcase.radioMedium.analogModel ignorePartialInterference true
par HandoverShowcase.radioMedium.backgroundNoise typename "\"inet.physicallayer.wireless.common.backgroundnoise.IsotropicScalarBackgroundNoise\""
par HandoverShowcase.radioMedium.backgroundNoise power -110dBm
attr unit dBm
par HandoverShowcase.radioMedium.backgroundNoise bandwidth "nan Hz"
attr unit Hz
par HandoverShowcase.radioMedium.pathLoss typename "\"inet.physicallayer.wireless.common.pathloss.FreeSpacePathLoss\""
par HandoverShowcase.radioMedium.pathLoss alpha 2
par HandoverShowcase.radioMedium.pathLoss systemLoss 0dB
attr unit dB
par HandoverShowcase.radioMedium.mediumLimitCache typename "\"inet.physicallayer.wireless.common.medium.MediumLimitCache\""
par HandoverShowcase.radioMedium.mediumLimitCache centerFrequency 2.4e+09Hz
attr unit Hz
par HandoverShowcase.radioMedium.mediumLimitCache maxSpeed "nan mps"
attr unit mps
par HandoverShowcase.radioMedium.mediumLimitCache maxTransmissionPower "nan W"
attr unit W
par HandoverShowcase.radioMedium.mediumLimitCache minInterferencePower -110dBm
attr unit dBm
par HandoverShowcase.radioMedium.mediumLimitCache minReceptionPower -85dBm
attr unit dBm
par HandoverShowcase.radioMedium.mediumLimitCache maxAntennaGain 0dB
attr unit dB
par HandoverShowcase.radioMedium.mediumLimitCache minInterferenceTime 1e-12s
attr unit s
par HandoverShowcase.radioMedium.mediumLimitCache maxTransmissionDuration 0.01s
attr unit s
par HandoverShowcase.radioMedium.mediumLimitCache maxCommunicationRange "nan m"
attr unit m
par HandoverShowcase.radioMedium.mediumLimitCache maxInterferenceRange "nan m"
attr unit m
par HandoverShowcase.radioMedium.communicationCache typename "\"inet.physicallayer.wireless.common.communicationcache.VectorCommunicationCache\""
par HandoverShowcase.radioMedium typename "\"inet.physicallayer.wireless.ieee80211.packetlevel.Ieee80211ScalarRadioMedium\""
par HandoverShowcase.radioMedium physicalEnvironmentModule "\"physicalEnvironment\""
par HandoverShowcase.radioMedium signalAnalogRepresentation "\"scalar\""
attr enum unitDisk,scalar,dimensional
par HandoverShowcase.radioMedium rangeFilter "\"\""
par HandoverShowcase.radioMedium radioModeFilter false
par HandoverShowcase.radioMedium listeningFilter false
par HandoverShowcase.radioMedium macAddressFilter false
par HandoverShowcase.radioMedium recordTransmissionLog false
par HandoverShowcase.radioMedium recordReceptionLog false
scalar HandoverShowcase.radioMedium "transmission count" 2457
scalar HandoverShowcase.radioMedium "signal send count" 7371
scalar HandoverShowcase.radioMedium "reception computation count" 7371
scalar HandoverShowcase.radioMedium "interference computation count" 24565
scalar HandoverShowcase.radioMedium "reception decision computation count" 1024
scalar HandoverShowcase.radioMedium "listening decision computation count" 16172
scalar HandoverShowcase.radioMedium "reception cache hit" 77.369439071567
attr unit %
scalar HandoverShowcase.radioMedium "interference cache hit" 66.666666666667
attr unit %
scalar HandoverShowcase.radioMedium "noise cache hit" 0
attr unit %
scalar HandoverShowcase.radioMedium "snir cache hit" 50
attr unit %
scalar HandoverShowcase.radioMedium "reception decision cache hit" 50
attr unit %
scalar HandoverShowcase.radioMedium "reception result cache hit" 0
attr unit %
par HandoverShowcase.host1.radioIn[0].channel typename "\"ned.IdealChannel\""
par HandoverShowcase.host1.mobility typename "\"inet.mobility.single.LinearMobility\""
par HandoverShowcase.host1.mobility subjectModule "\"^\""
par HandoverShowcase.host1.mobility coordinateSystemModule "\"\""
par HandoverShowcase.host1.mobility displayStringTextFormat "\"p: %p\\nv: %v\""
attr mutable ""
par HandoverShowcase.host1.mobility updateDisplayString true
par HandoverShowcase.host1.mobility constraintAreaMinX 40m
attr unit m
par HandoverShowcase.host1.mobility constraintAreaMinY "-inf m"
attr unit m
par HandoverShowcase.host1.mobility constraintAreaMinZ "-inf m"
attr unit m
par HandoverShowcase.host1.mobility constraintAreaMaxX 600m
attr unit m
par HandoverShowcase.host1.mobility constraintAreaMaxY "inf m"
attr unit m
par HandoverShowcase.host1.mobility constraintAreaMaxZ "inf m"
attr unit m
par HandoverShowcase.host1.mobility updateInterval 0.1s
attr unit s
par HandoverShowcase.host1.mobility faceForward true
par HandoverShowcase.host1.mobility initialX 347.336m
attr unit m
par HandoverShowcase.host1.mobility initialY "nan m"
attr unit m
par HandoverShowcase.host1.mobility initialZ 0m
attr unit m
par HandoverShowcase.host1.mobility initFromDisplayString true
par HandoverShowcase.host1.mobility speed 10mps
attr unit mps
par HandoverShowcase.host1.mobility initialMovementHeading 0deg
attr unit deg
par HandoverShowcase.host1.mobility initialMovementElevation 0deg
attr unit deg
par HandoverShowcase.host1.interfaceTable typename "\"inet.networklayer.common.InterfaceTable\""
par HandoverShowcase.host1.interfaceTable displayAddresses false
par HandoverShowcase.host1.cb typename "\"inet.common.MessageDispatcher\""
par HandoverShowcase.host1.cb displayStringTextFormat "\"processed %p pk (%l)\""
par HandoverShowcase.host1.cb forwardServiceRegistration true
par HandoverShowcase.host1.cb forwardProtocolRegistration true
par HandoverShowcase.host1.bl typename "\"inet.common.MessageDispatcher\""
par HandoverShowcase.host1.bl displayStringTextFormat "\"processed %p pk (%l)\""
par HandoverShowcase.host1.bl forwardServiceRegistration true
par HandoverShowcase.host1.bl forwardProtocolRegistration true
par HandoverShowcase.host1.li typename "\"inet.common.MessageDispatcher\""
par HandoverShowcase.host1.li displayStringTextFormat "\"processed %p pk (%l)\""
par HandoverShowcase.host1.li forwardServiceRegistration true
par HandoverShowcase.host1.li forwardProtocolRegistration true
par HandoverShowcase.host1.lo[0].upperLayerIn.channel typename "\"ned.IdealChannel\""
par HandoverShowcase.host1.lo[0].lo.upperLayerOut.channel typename "\"ned.IdealChannel\""
par HandoverShowcase.host1.lo[0].lo typename "\"inet.linklayer.loopback.Loopback\""
par HandoverShowcase.host1.lo[0].lo interfaceTableModule "\"HandoverShowcase.host1.interfaceTable\""
par HandoverShowcase.host1.lo[0].lo mtu 4470B
attr unit B
scalar HandoverShowcase.host1.lo[0].lo rcvdPkFromHl:count 0
attr interpolationmode none
attr recordingmode count
attr source packetReceivedFromUpper
attr title "packets received from higher layer, count"
scalar HandoverShowcase.host1.lo[0].lo rcvdPkFromHl:sum(packetBytes) 0
attr interpolationmode none
attr recordingmode sum(packetBytes)
attr source packetReceivedFromUpper
attr title "packets received from higher layer, sum(packetBytes)"
scalar HandoverShowcase.host1.lo[0].lo passedUpPk:count 0
attr interpolationmode none
attr recordingmode count
attr source packetSentToUpper
attr title "packets passed to higher layer, count"
scalar HandoverShowcase.host1.lo[0].lo passedUpPk:sum(packetBytes) 0
attr interpolationmode none
attr recordingmode sum(packetBytes)
attr source packetSentToUpper
attr title "packets passed to higher layer, sum(packetBytes)"
par HandoverShowcase.host1.lo[0] typename "\"inet.linklayer.loopback.LoopbackInterface\""
par HandoverShowcase.host1.lo[0] displayStringTextFormat "\"%a (%i)\\n%m\""
par HandoverShowcase.host1.lo[0] recordPcap false
par HandoverShowcase.host1.lo[0] numPcapRecorders 0
par HandoverShowcase.host1.lo[0] interfaceTableModule "\"HandoverShowcase.host1.interfaceTable\""
scalar HandoverShowcase.host1.lo[0] packetDropInterfaceDown:count 0
attr interpolationmode none
attr recordingmode count
attr source packetDropReasonIsInterfaceDown(packetDropped)
attr title "packet drops: interface down, count"
scalar HandoverShowcase.host1.lo[0] packetDropInterfaceDown:sum(packetBytes) 0
attr interpolationmode none
attr recordingmode sum(packetBytes)
attr source packetDropReasonIsInterfaceDown(packetDropped)
attr title "packet drops: interface down, sum(packetBytes)"
scalar HandoverShowcase.host1.lo[0] packetDropNoCarrier:count 0
attr interpolationmode none
attr recordingmode count
attr source packetDropReasonIsNoCarrier(packetDropped)
attr title "packet drops: no carrier, count"
scalar HandoverShowcase.host1.lo[0] packetDropNoCarrier:sum(packetBytes) 0
attr interpolationmode none
attr recordingmode sum(packetBytes)
attr source packetDropReasonIsNoCarrier(packetDropped)
attr title "packet drops: no carrier, sum(packetBytes)"
par HandoverShowcase.host1.wlan[0].radioIn.channel typename "\"ned.IdealChannel\""
par HandoverShowcase.host1.wlan[0].llc.upperLayerOut.channel typename "\"ned.IdealChannel\""
par HandoverShowcase.host1.wlan[0].upperLayerIn.channel typename "\"ned.IdealChannel\""
par HandoverShowcase.host1.wlan[0].mib typename "\"inet.linklayer.ieee80211.mib.Ieee80211Mib\""
par HandoverShowcase.host1.wlan[0].llc typename "\"inet.linklayer.ieee80211.llc.Ieee80211LlcLpd\""
par HandoverShowcase.host1.wlan[0].llc registerProtocol false
par HandoverShowcase.host1.wlan[0].agent typename "\"inet.linklayer.ieee80211.mgmt.Ieee80211AgentSta\""
par HandoverShowcase.host1.wlan[0].agent interfaceTableModule "\"HandoverShowcase.host1.interfaceTable\""
par HandoverShowcase.host1.wlan[0].agent mibModule "\"HandoverShowcase.host1.wlan[0].mib\""
par HandoverShowcase.host1.wlan[0].agent activeScan true
par HandoverShowcase.host1.wlan[0].agent channelsToScan "\"\""
par HandoverShowcase.host1.wlan[0].agent probeDelay 0.1s
attr unit s
par HandoverShowcase.host1.wlan[0].agent minChannelTime 0.15s
attr unit s
par HandoverShowcase.host1.wlan[0].agent maxChannelTime 0.3s
attr unit s
par HandoverShowcase.host1.wlan[0].agent authenticationTimeout 5s
attr unit s
par HandoverShowcase.host1.wlan[0].agent associationTimeout 5s
attr unit s
par HandoverShowcase.host1.wlan[0].agent startingTime -1s
attr unit s
par HandoverShowcase.host1.wlan[0].agent defaultSsid "\"\""
scalar HandoverShowcase.host1.wlan[0].agent dropConfirm:count 0
attr recordingmode count
attr title "dropped confirms, count"
scalar HandoverShowcase.host1.wlan[0].agent acceptConfirm:count 9
attr recordingmode count
attr title "accepted confirms, count"
scalar HandoverShowcase.host1.wlan[0].agent sentRequest:count 9
attr recordingmode count
attr title "sent requests, count"
par HandoverShowcase.host1.wlan[0].mgmt typename "\"inet.linklayer.ieee80211.mgmt.Ieee80211MgmtSta\""
par HandoverShowcase.host1.wlan[0].mgmt interfaceTableModule "\"HandoverShowcase.host1.interfaceTable\""
par HandoverShowcase.host1.wlan[0].mgmt numChannels 5
par HandoverShowcase.host1.wlan[0].mgmt mibModule "\"HandoverShowcase.host1.wlan[0].mib\""
par HandoverShowcase.host1.wlan[0].mgmt macModule "\"HandoverShowcase.host1.wlan[0].mac\""
par HandoverShowcase.host1.wlan[0].mac.dcf.channelAccess.pendingQueue typename "\"inet.linklayer.ieee80211.mac.queue.PendingQueue\""
par HandoverShowcase.host1.wlan[0].mac.dcf.channelAccess.pendingQueue displayStringTextFormat "\"contains %p pk (%l) pushed %u\\npulled %o removed %r dropped %d\""
par HandoverShowcase.host1.wlan[0].mac.dcf.channelAccess.pendingQueue packetCapacity 100
par HandoverShowcase.host1.wlan[0].mac.dcf.channelAccess.pendingQueue dataCapacity -1b
attr unit b
par HandoverShowcase.host1.wlan[0].mac.dcf.channelAccess.pendingQueue dropperClass "\"inet::queueing::PacketAtCollectionEndDropper\""
par HandoverShowcase.host1.wlan[0].mac.dcf.channelAccess.pendingQueue comparatorClass "\"inet::ieee80211::MgmtOverDataComparator\""
par HandoverShowcase.host1.wlan[0].mac.dcf.channelAccess.pendingQueue bufferModule "\"\""
scalar HandoverShowcase.host1.wlan[0].mac.dcf.channelAccess.pendingQueue queueLength:last 0
attr autoWarmupFilter false
attr interpolationmode sample-hold
attr recordingmode last
attr source "warmup(atomic(constant0(packetPushEnded) + count(packetPushStarted) - count(packetPulled) - count(packetRemoved) - count(packetDropped)))"
attr title "queue length, last"
attr unit pk
scalar HandoverShowcase.host1.wlan[0].mac.dcf.channelAccess.pendingQueue queueLength:max 1
attr autoWarmupFilter false
attr interpolationmode sample-hold
attr recordingmode max
attr source "warmup(atomic(constant0(packetPushEnded) + count(packetPushStarted) - count(packetPulled) - count(packetRemoved) - count(packetDropped)))"
attr title "queue length, max"
attr unit pk
scalar HandoverShowcase.host1.wlan[0].mac.dcf.channelAccess.pendingQueue queueLength:timeavg 3.304e-05
attr autoWarmupFilter false
attr interpolationmode sample-hold
attr recordingmode timeavg
attr source "warmup(atomic(constant0(packetPushEnded) + count(packetPushStarted) - count(packetPulled) - count(packetRemoved) - count(packetDropped)))"
attr title "queue length, timeavg"
attr unit pk
scalar HandoverShowcase.host1.wlan[0].mac.dcf.channelAccess.pendingQueue queueBitLength:last 0
attr autoWarmupFilter false
attr interpolationmode sample-hold
attr recordingmode last
attr source "warmup(atomic(constant0(packetPushEnded) + sum(packetLength(packetPushStarted)) - sum(packetLength(packetPulled)) - sum(packetLength(packetRemoved)) - sum(packetLength(packetDropped))))"
attr title "queue bit length, last"
attr unit b
scalar HandoverShowcase.host1.wlan[0].mac.dcf.channelAccess.pendingQueue queueBitLength:max 288
attr autoWarmupFilter false
attr interpolationmode sample-hold
attr recordingmode max
attr source "warmup(atomic(constant0(packetPushEnded) + sum(packetLength(packetPushStarted)) - sum(packetLength(packetPulled)) - sum(packetLength(packetRemoved)) - sum(packetLength(packetDropped))))"
attr title "queue bit length, max"
attr unit b
scalar HandoverShowcase.host1.wlan[0].mac.dcf.channelAccess.pendingQueue queueBitLength:timeavg 0.0092144
attr autoWarmupFilter false
attr interpolationmode sample-hold
attr recordingmode timeavg
attr source "warmup(atomic(constant0(packetPushEnded) + sum(packetLength(packetPushStarted)) - sum(packetLength(packetPulled)) - sum(packetLength(packetRemoved)) - sum(packetLength(packetDropped))))"
attr title "queue bit length, timeavg"
attr unit b
statistic HandoverShowcase.host1.wlan[0].mac.dcf.channelAccess.pendingQueue queueingTime:histogram
field count 24
field mean 0.00013766666666667
field stddev 0.00025558843728808
field min 0
field max 0.000694
field sum 0.003304
field sqrsum 1.957336e-06
attr interpolationmode none
attr recordingmode histogram
attr source queueingTime(packetPulled)
attr title "queueing times"
attr unit s
bin	-inf	0
bin	0	18
bin	1e-05	0
bin	2e-05	0
bin	3e-05	0
bin	4e-05	0
bin	5e-05	0
bin	6e-05	0
bin	7e-05	0
bin	8e-05	0
bin	9e-05	0
bin	0.0001	0
bin	0.00011	0
bin	0.00012	0
bin	0.00013	0
bin	0.00014	0
bin	0.00015	0
bin	0.00016	0
bin	0.00017	0
bin	0.00018	0
bin	0.00019	0
bin	0.0002	0
bin	0.00021	0
bin	0.00022	0
bin	0.00023	0
bin	0.00024	0
bin	0.00025	0
bin	0.00026	0
bin	0.00027	1
bin	0.00028	0
bin	0.00029	0
bin	0.0003	0
bin	0.00031	0
bin	0.00032	0
bin	0.00033	0
bin	0.00034	0
bin	0.00035	0
bin	0.00036	0
bin	0.00037	0
bin	0.00038	0
bin	0.00039	0
bin	0.0004	0
bin	0.00041	0
bin	0.00042	0
bin	0.00043	0
bin	0.00044	0
bin	0.00045	1
bin	0.00046	0
bin	0.00047	0
bin	0.00048	0
bin	0.00049	0
bin	0.0005	0
bin	0.00051	0
bin	0.00052	0
bin	0.00053	1
bin	0.00054	0
bin	0.00055	0
bin	0.00056	0
bin	0.00057	0
bin	0.00058	0
bin	0.00059	0
bin	0.0006	0
bin	0.00061	0
bin	0.00062	0
bin	0.00063	0
bin	0.00064	0
bin	0.00065	1
bin	0.00066	0
bin	0.00067	0
bin	0.00068	0
bin	0.00069	2
bin	0.0007	0
bin	0.00071	0
bin	0.00072	0
bin	0.00073	0
bin	0.00074	0
bin	0.00075	0
bin	0.00076	0
bin	0.00077	0
bin	0.00078	0
bin	0.00079	0
bin	0.0008	0
bin	0.00081	0
bin	0.00082	0
bin	0.00083	0
bin	0.00084	0
bin	0.00085	0
bin	0.00086	0
bin	0.00087	0
scalar HandoverShowcase.host1.wlan[0].mac.dcf.channelAccess.pendingQueue outgoingPackets:count 24
attr recordingmode count
attr source packetPulled
attr title "outgoing packets, count"
attr unit pk
scalar HandoverShowcase.host1.wlan[0].mac.dcf.channelAccess.pendingQueue outgoingPacketLengths:sum 6336
attr interpolationmode none
attr recordingmode sum
attr source packetLength(packetPulled)
attr title "outgoing packet lengths, sum"
attr unit b
statistic HandoverShowcase.host1.wlan[0].mac.dcf.channelAccess.pendingQueue outgoingPacketLengths:histogram
field count 24
field mean 264
field stddev 11.557041896234
field min 256
field max 288
field sum 6336
field sqrsum 1675776
attr interpolationmode none
attr recordingmode histogram
attr source packetLength(packetPulled)
attr title "outgoing packet lengths"
attr unit b
bin	-inf	0
bin	248	0
bin	249	0
bin	250	0
bin	251	0
bin	252	0
bin	253	0
bin	254	0
bin	255	0
bin	256	15
bin	257	0
bin	258	0
bin	259	0
bin	260	0
bin	261	0
bin	262	0
bin	263	0
bin	264	0
bin	265	0
bin	266	0
bin	267	0
bin	268	0
bin	269	0
bin	270	0
bin	271	0
bin	272	6
bin	273	0
bin	274	0
bin	275	0
bin	276	0
bin	277	0
bin	278	0
bin	279	0
bin	280	0
bin	281	0
bin	282	0
bin	283	0
bin	284	0
bin	285	0
bin	286	0
bin	287	0
bin	288	3
bin	289	0
bin	290	0
bin	291	0
bin	292	0
bin	293	0
bin	294	0
bin	295	0
bin	296	0
statistic HandoverShowcase.host1.wlan[0].mac.dcf.channelAccess.pendingQueue flowQueueingTime:histogram
field count 0
field mean -nan
field stddev -nan
field min -nan
field max -nan
field sum 0
field sqrsum 0
attr interpolationmode none
attr recordingmode histogram
attr source queueingTime(demuxFlow(packetPulled))
attr title "flow queueing times"
attr unit s
bin	-inf	0
bin	0	0
bin	1	0
scalar HandoverShowcase.host1.wlan[0].mac.dcf.channelAccess.pendingQueue incomingPackets:count 24
attr recordingmode count
attr source packetPushStarted
attr title "incoming packets, count"
attr unit pk
scalar HandoverShowcase.host1.wlan[0].mac.dcf.channelAccess.pendingQueue incomingPacketLengths:sum 6336
attr interpolationmode none
attr recordingmode sum
attr source packetLength(packetPushStarted)
attr title "incoming packet lengths, sum"
attr unit b
statistic HandoverShowcase.host1.wlan[0].mac.dcf.channelAccess.pendingQueue incomingPacketLengths:histogram
field count 24
field mean 264
field stddev 11.557041896234
field min 256
field max 288
field sum 6336
field sqrsum 1675776
attr interpolationmode none
attr recordingmode histogram
attr source packetLength(packetPushStarted)
attr title "incoming packet lengths"
attr unit b
bin	-inf	0
bin	248	0
bin	249	0
bin	250	0
bin	251	0
bin	252	0
bin	253	0
bin	254	0
bin	255	0
bin	256	15
bin	257	0
bin	258	0
bin	259	0
bin	260	0
bin	261	0
bin	262	0
bin	263	0
bin	264	0
bin	265	0
bin	266	0
bin	267	0
bin	268	0
bin	269	0
bin	270	0
bin	271	0
bin	272	6
bin	273	0
bin	274	0
bin	275	0
bin	276	0
bin	277	0
bin	278	0
bin	279	0
bin	280	0
bin	281	0
bin	282	0
bin	283	0
bin	284	0
bin	285	0
bin	286	0
bin	287	0
bin	288	3
bin	289	0
bin	290	0
bin	291	0
bin	292	0
bin	293	0
bin	294	0
bin	295	0
bin	296	0
scalar HandoverShowcase.host1.wlan[0].mac.dcf.channelAccess.pendingQueue droppedPacketsQueueOverflow:count 0
attr interpolationmode none
attr recordingmode count
attr source packetDropReasonIsQueueOverflow(packetDropped)
attr title "dropped packets: queue overflow, count"
attr unit pk
scalar HandoverShowcase.host1.wlan[0].mac.dcf.channelAccess.pendingQueue droppedPacketLengthsQueueOverflow:sum 0
attr interpolationmode none
attr recordingmode sum
attr source packetLength(packetDropReasonIsQueueOverflow(packetDropped))
attr title "dropped packet lengths: queue overflow, sum"
attr unit b
par HandoverShowcase.host1.wlan[0].mac.dcf.channelAccess.inProgressFrames typename "\"inet.linklayer.ieee80211.mac.queue.InProgressFrames\""
par HandoverShowcase.host1.wlan[0].mac.dcf.channelAccess.inProgressFrames pendingQueueModule "\"^.pendingQueue\""
par HandoverShowcase.host1.wlan[0].mac.dcf.channelAccess.inProgressFrames originatorMacDataServiceModule "\"^.^.originatorMacDataService\""
par HandoverShowcase.host1.wlan[0].mac.dcf.channelAccess.inProgressFrames ackHandlerModule "\"^.^.ackHandler\""
statistic HandoverShowcase.host1.wlan[0].mac.dcf.channelAccess.inProgressFrames queueingTime:histogram
field count 24
field mean 5.6334458958333e-05
field stddev 2.4179324550775e-05
field min 3.8e-05
field max 8.707781e-05
field sum 0.001352027015
field sqrsum 8.9612424308905e-08
attr interpolationmode none
attr recordingmode histogram
attr source queueingTime(packetDequeued)
attr title "queueing times"
bin	-inf	0
bin	2.5e-05	0
bin	2.6e-05	0
bin	2.7e-05	0
bin	2.8e-05	0
bin	2.9e-05	0
bin	3e-05	0
bin	3.1e-05	0
bin	3.2e-05	0
bin	3.3e-05	0
bin	3.4e-05	0
bin	3.5e-05	0
bin	3.6e-05	0
bin	3.7e-05	15
bin	3.8e-05	0
bin	3.9e-05	0
bin	4e-05	0
bin	4.1e-05	0
bin	4.2e-05	0
bin	4.3e-05	0
bin	4.4e-05	0
bin	4.5e-05	0
bin	4.6e-05	0
bin	4.7e-05	0
bin	4.8e-05	0
bin	4.9e-05	0
bin	5e-05	0
bin	5.1e-05	0
bin	5.2e-05	0
bin	5.3e-05	0
bin	5.4e-05	0
bin	5.5e-05	0
bin	5.6e-05	0
bin	5.7e-05	0
bin	5.8e-05	0
bin	5.9e-05	0
bin	6e-05	0
bin	6.1e-05	0
bin	6.2e-05	0
bin	6.3e-05	0
bin	6.4e-05	0
bin	6.5e-05	0
bin	6.6e-05	0
bin	6.7e-05	0
bin	6.8e-05	0
bin	6.9e-05	0
bin	7e-05	0
bin	7.1e-05	0
bin	7.2e-05	0
bin	7.3e-05	0
bin	7.4e-05	0
bin	7.5e-05	0
bin	7.6e-05	0
bin	7.7e-05	0
bin	7.8e-05	0
bin	7.9e-05	0
bin	8e-05	0
bin	8.1e-05	0
bin	8.2e-05	0
bin	8.3e-05	0
bin	8.4e-05	0
bin	8.5e-05	0
bin	8.6e-05	3
bin	8.7e-05	6
bin	8.8e-05	0
bin	8.9e-05	0
bin	9e-05	0
bin	9.1e-05	0
bin	9.2e-05	0
bin	9.3e-05	0
bin	9.4e-05	0
bin	9.5e-05	0
bin	9.6e-05	0
bin	9.7e-05	0
bin	9.8e-05	0
bin	9.9e-05	0
bin	0.0001	0
scalar HandoverShowcase.host1.wlan[0].mac.dcf.channelAccess.inProgressFrames queueLength:max 1
attr autoWarmupFilter false
attr interpolationmode sample-hold
attr recordingmode max
attr source "warmup(count(packetEnqueued) - count(packetDequeued))"
attr title "queue length, max"
scalar HandoverShowcase.host1.wlan[0].mac.dcf.channelAccess.inProgressFrames queueLength:timeavg 1.352027015e-05
attr autoWarmupFilter false
attr interpolationmode sample-hold
attr recordingmode timeavg
attr source "warmup(count(packetEnqueued) - count(packetDequeued))"
attr title "queue length, timeavg"
par HandoverShowcase.host1.wlan[0].mac.dcf.channelAccess.contention typename "\"inet.linklayer.ieee80211.mac.contention.Contention\""
par HandoverShowcase.host1.wlan[0].mac.dcf.channelAccess.contention initialChannelBusy true
par HandoverShowcase.host1.wlan[0].mac.dcf.channelAccess.contention backoffOptimization true
scalar HandoverShowcase.host1.wlan[0].mac.dcf.channelAccess.contention channelAccessGranted:count 24
attr recordingmode count
attr title "channel access granted, count"
scalar HandoverShowcase.host1.wlan[0].mac.dcf.channelAccess.contention stateChanged:count 4210
attr enum IDLE,DEFER,IFS_AND_BACKOFF
attr interpolationmode none
attr recordingmode count
attr title "contention state changed, count"
attr type enum
par HandoverShowcase.host1.wlan[0].mac.dcf.channelAccess typename "\"inet.linklayer.ieee80211.mac.channelaccess.Dcaf\""
par HandoverShowcase.host1.wlan[0].mac.dcf.channelAccess difsn -1
par HandoverShowcase.host1.wlan[0].mac.dcf.channelAccess cwMin -1
par HandoverShowcase.host1.wlan[0].mac.dcf.channelAccess cwMax -1
par HandoverShowcase.host1.wlan[0].mac.dcf.channelAccess rxModule "\"^.^.rx\""
scalar HandoverShowcase.host1.wlan[0].mac.dcf.channelAccess channelOwnershipChanged:count 48
attr interpolationmode sample-hold
attr recordingmode count
attr title "channel ownership, count"
par HandoverShowcase.host1.wlan[0].mac.dcf.originatorMacDataService.fragmentationPolicy typename "\"inet.linklayer.ieee80211.mac.fragmentation.BasicFragmentationPolicy\""
par HandoverShowcase.host1.wlan[0].mac.dcf.originatorMacDataService.fragmentationPolicy fragmentationThreshold 1500B
attr unit B
par HandoverShowcase.host1.wlan[0].mac.dcf.originatorMacDataService typename "\"inet.linklayer.ieee80211.mac.originator.OriginatorMacDataService\""
scalar HandoverShowcase.host1.wlan[0].mac.dcf.originatorMacDataService packetAggregated:count 0
attr recordingmode count
attr title "packets aggregated, count"
scalar HandoverShowcase.host1.wlan[0].mac.dcf.originatorMacDataService packetFragmented:count 0
attr recordingmode count
attr title "packets fragmented, count"
par HandoverShowcase.host1.wlan[0].mac.dcf.recipientMacDataService typename "\"inet.linklayer.ieee80211.mac.recipient.RecipientMacDataService\""
scalar HandoverShowcase.host1.wlan[0].mac.dcf.recipientMacDataService packetDeaggregated:count 0
attr recordingmode count
attr title "packets deaggregated, count"
scalar HandoverShowcase.host1.wlan[0].mac.dcf.recipientMacDataService packetDefragmented:count 991
attr recordingmode count
attr title "packets defragmented, count"
scalar HandoverShowcase.host1.wlan[0].mac.dcf.recipientMacDataService packetDropDuplicateDetected:count 0
attr interpolationmode none
attr recordingmode count
attr source packetDropReasonIsDuplicateDetected(packetDropped)
attr title "packet drops: duplicate detected, count"
scalar HandoverShowcase.host1.wlan[0].mac.dcf.recipientMacDataService packetDropDuplicateDetected:sum(packetBytes) 0
attr interpolationmode none
attr recordingmode sum(packetBytes)
attr source packetDropReasonIsDuplicateDetected(packetDropped)
attr title "packet drops: duplicate detected, sum(packetBytes)"
par HandoverShowcase.host1.wlan[0].mac.dcf.rateSelection typename "\"inet.linklayer.ieee80211.mac.rateselection.RateSelection\""
par HandoverShowcase.host1.wlan[0].mac.dcf.rateSelection rateControlModule "\"^.rateControl\""
par HandoverShowcase.host1.wlan[0].mac.dcf.rateSelection multicastFrameBitrate -1bps
attr unit bps
par HandoverShowcase.host1.wlan[0].mac.dcf.rateSelection responseAckFrameBitrate -1bps
attr unit bps
par HandoverShowcase.host1.wlan[0].mac.dcf.rateSelection responseCtsFrameBitrate -1bps
attr unit bps
par HandoverShowcase.host1.wlan[0].mac.dcf.rateSelection dataFrameBitrate -1bps
attr unit bps
par HandoverShowcase.host1.wlan[0].mac.dcf.rateSelection dataFrameBandwidth "nan Hz"
attr unit Hz
par HandoverShowcase.host1.wlan[0].mac.dcf.rateSelection dataFrameNumSpatialStreams -1
par HandoverShowcase.host1.wlan[0].mac.dcf.rateSelection mgmtFrameBitrate -1bps
attr unit bps
par HandoverShowcase.host1.wlan[0].mac.dcf.rateSelection controlFrameBitrate -1bps
attr unit bps
par HandoverShowcase.host1.wlan[0].mac.dcf.recoveryProcedure typename "\"inet.linklayer.ieee80211.mac.originator.NonQosRecoveryProcedure\""
par HandoverShowcase.host1.wlan[0].mac.dcf.recoveryProcedure cwCalculatorModule "\"^.channelAccess\""
par HandoverShowcase.host1.wlan[0].mac.dcf.recoveryProcedure rtsPolicyModule "\"^.rtsPolicy\""
par HandoverShowcase.host1.wlan[0].mac.dcf.recoveryProcedure shortRetryLimit 7
par HandoverShowcase.host1.wlan[0].mac.dcf.recoveryProcedure longRetryLimit 4
scalar HandoverShowcase.host1.wlan[0].mac.dcf.recoveryProcedure retryLimitReached:count 0
attr recordingmode count
attr title "retry limit reached, count"
par HandoverShowcase.host1.wlan[0].mac.dcf.originatorProtectionMechanism typename "\"inet.linklayer.ieee80211.mac.protectionmechanism.OriginatorProtectionMechanism\""
par HandoverShowcase.host1.wlan[0].mac.dcf.originatorProtectionMechanism rateSelectionModule "\"^.rateSelection\""
par HandoverShowcase.host1.wlan[0].mac.dcf.ackHandler typename "\"inet.linklayer.ieee80211.mac.originator.AckHandler\""
par HandoverShowcase.host1.wlan[0].mac.dcf.originatorAckPolicy typename "\"inet.linklayer.ieee80211.mac.originator.OriginatorAckPolicy\""
[...]
attr source ieee80211Multicast(packetSentToPeer)
attr title "packets sent: multicast, count"
scalar HandoverShowcase.ap2.wlan[0].mac.dcf packetSentToPeerMulticast:sum(packetBytes) 47000
attr interpolationmode none
attr recordingmode sum(packetBytes)
attr source ieee80211Multicast(packetSentToPeer)
attr title "packets sent: multicast, sum(packetBytes)"
scalar HandoverShowcase.ap2.wlan[0].mac.dcf packetSentToPeerBroadcast:count 1000
attr interpolationmode none
attr recordingmode count
attr source ieee80211Broadcast(packetSentToPeer)
attr title "packets sent: broadcast , count"
scalar HandoverShowcase.ap2.wlan[0].mac.dcf packetSentToPeerBroadcast:sum(packetBytes) 47000
attr interpolationmode none
attr recordingmode sum(packetBytes)
attr source ieee80211Broadcast(packetSentToPeer)
attr title "packets sent: broadcast , sum(packetBytes)"
scalar HandoverShowcase.ap2.wlan[0].mac.dcf packetSentToPeerWithRetry:count 0
attr interpolationmode none
attr recordingmode count
attr source ieee80211Retry(packetSentToPeer)
attr title "packets sent: with retry, count"
scalar HandoverShowcase.ap2.wlan[0].mac.dcf packetSentToPeerWithRetry:sum(packetBytes) 0
attr interpolationmode none
attr recordingmode sum(packetBytes)
attr source ieee80211Retry(packetSentToPeer)
attr title "packets sent: with retry, sum(packetBytes)"
scalar HandoverShowcase.ap2.wlan[0].mac.dcf packetSentToPeerWithoutRetry:count 1007
attr interpolationmode none
attr recordingmode count
attr source ieee80211NotRetry(packetSentToPeer)
attr title "packets sent: without retry, count"
scalar HandoverShowcase.ap2.wlan[0].mac.dcf packetSentToPeerWithoutRetry:sum(packetBytes) 47193
attr interpolationmode none
attr recordingmode sum(packetBytes)
attr source ieee80211NotRetry(packetSentToPeer)
attr title "packets sent: without retry, sum(packetBytes)"
scalar HandoverShowcase.ap2.wlan[0].mac.dcf packetDrop:count 0
attr interpolationmode none
attr recordingmode count
attr source packetDropped
attr title "packet drops, count"
scalar HandoverShowcase.ap2.wlan[0].mac.dcf packetDrop:sum(packetBytes) 0
attr interpolationmode none
attr recordingmode sum(packetBytes)
attr source packetDropped
attr title "packet drops, sum(packetBytes)"
scalar HandoverShowcase.ap2.wlan[0].mac.dcf packetDropNotAddressedToUs:count 0
attr interpolationmode none
attr recordingmode count
attr source packetDropReasonIsNotAddressedToUs(packetDropped)
attr title "packet drops: not addressed to us, count"
scalar HandoverShowcase.ap2.wlan[0].mac.dcf packetDropNotAddressedToUs:sum(packetBytes) 0
attr interpolationmode none
attr recordingmode sum(packetBytes)
attr source packetDropReasonIsNotAddressedToUs(packetDropped)
attr title "packet drops: not addressed to us, sum(packetBytes)"
scalar HandoverShowcase.ap2.wlan[0].mac.dcf packetDropQueueOverflow:count 0
attr interpolationmode none
attr recordingmode count
attr source packetDropReasonIsQueueOverflow(packetDropped)
attr title "packet drops: queue overflow, count"
scalar HandoverShowcase.ap2.wlan[0].mac.dcf packetDropQueueOverflow:sum(packetBytes) 0
attr interpolationmode none
attr recordingmode sum(packetBytes)
attr source packetDropReasonIsQueueOverflow(packetDropped)
attr title "packet drops: queue overflow, sum(packetBytes)"
scalar HandoverShowcase.ap2.wlan[0].mac.dcf packetDropRetryLimitReached:count 0
attr interpolationmode none
attr recordingmode count
attr source packetDropReasonIsRetryLimitReached(packetDropped)
attr title "packet drops: retry limit reached, count"
scalar HandoverShowcase.ap2.wlan[0].mac.dcf packetDropRetryLimitReached:sum(packetBytes) 0
attr interpolationmode none
attr recordingmode sum(packetBytes)
attr source packetDropReasonIsRetryLimitReached(packetDropped)
attr title "packet drops: retry limit reached, sum(packetBytes)"
scalar HandoverShowcase.ap2.wlan[0].mac.dcf linkBroken:count 0
attr interpolationmode none
attr recordingmode count
attr title "link breaks, count"
par HandoverShowcase.ap2.wlan[0].mac.ds typename "\"inet.linklayer.ieee80211.mac.Ds\""
par HandoverShowcase.ap2.wlan[0].mac.ds mibModule "\"HandoverShowcase.ap2.wlan[0].mib\""
par HandoverShowcase.ap2.wlan[0].mac.rx typename "\"inet.linklayer.ieee80211.mac.Rx\""
par HandoverShowcase.ap2.wlan[0].mac.tx typename "\"inet.linklayer.ieee80211.mac.Tx\""
par HandoverShowcase.ap2.wlan[0].mac.tx rxModule "\"^.rx\""
par HandoverShowcase.ap2.wlan[0].mac typename "\"inet.linklayer.ieee80211.mac.Ieee80211Mac\""
par HandoverShowcase.ap2.wlan[0].mac interfaceTableModule "\"HandoverShowcase.ap2.interfaceTable\""
par HandoverShowcase.ap2.wlan[0].mac mibModule "\"HandoverShowcase.ap2.wlan[0].mib\""
par HandoverShowcase.ap2.wlan[0].mac modeSet "\"g(mixed)\""
attr enum a,b,g(erp),g(mixed),n(mixed-2.4Ghz),p,ac
par HandoverShowcase.ap2.wlan[0].mac fcsMode "\"declared\""
attr enum declared,computed
par HandoverShowcase.ap2.wlan[0].mac initialRadioMode "\"receiver\""
attr enum off,sleep,receiver,transmitter,transceiver
par HandoverShowcase.ap2.wlan[0].mac mtu 2304B
attr unit B
par HandoverShowcase.ap2.wlan[0].mac qosStation false
scalar HandoverShowcase.ap2.wlan[0].mac packetReceivedFromLower:count 8
attr interpolationmode none
attr recordingmode count
attr title "packets received from lower layer, count"
scalar HandoverShowcase.ap2.wlan[0].mac packetReceivedFromLower:sum(packetBytes) 192
attr interpolationmode none
attr recordingmode sum(packetBytes)
attr title "packets received from lower layer, sum(packetBytes)"
scalar HandoverShowcase.ap2.wlan[0].mac packetSentToLower:count 1007
attr interpolationmode none
attr recordingmode count
attr title "packets sent to lower layer, count"
scalar HandoverShowcase.ap2.wlan[0].mac packetSentToLower:sum(packetBytes) 47193
attr interpolationmode none
attr recordingmode sum(packetBytes)
attr title "packets sent to lower layer, sum(packetBytes)"
scalar HandoverShowcase.ap2.wlan[0].mac packetReceivedFromUpper:count 0
attr interpolationmode none
attr recordingmode count
attr title "packets received from upper layer, count"
scalar HandoverShowcase.ap2.wlan[0].mac packetReceivedFromUpper:sum(packetBytes) 0
attr interpolationmode none
attr recordingmode sum(packetBytes)
attr title "packets received from upper layer, sum(packetBytes)"
scalar HandoverShowcase.ap2.wlan[0].mac packetSentToUpper:count 0
attr interpolationmode none
attr recordingmode count
attr title "packets sent to upper layer, count"
scalar HandoverShowcase.ap2.wlan[0].mac packetSentToUpper:sum(packetBytes) 0
attr interpolationmode none
attr recordingmode sum(packetBytes)
attr title "packets sent to upper layer, sum(packetBytes)"
scalar HandoverShowcase.ap2.wlan[0].mac packetDrop:count 0
attr interpolationmode none
attr recordingmode count
attr source packetDropped
attr title "packet drops, count"
scalar HandoverShowcase.ap2.wlan[0].mac packetDrop:sum(packetBytes) 0
attr interpolationmode none
attr recordingmode sum(packetBytes)
attr source packetDropped
attr title "packet drops, sum(packetBytes)"
scalar HandoverShowcase.ap2.wlan[0].mac packetDropIncorrectlyReceived:count 0
attr interpolationmode none
attr recordingmode count
attr source packetDropReasonIsIncorrectlyReceived(packetDropped)
attr title "packet drops: incorrectly received, count"
scalar HandoverShowcase.ap2.wlan[0].mac packetDropIncorrectlyReceived:sum(packetBytes) 0
attr interpolationmode none
attr recordingmode sum(packetBytes)
attr source packetDropReasonIsIncorrectlyReceived(packetDropped)
attr title "packet drops: incorrectly received, sum(packetBytes)"
scalar HandoverShowcase.ap2.wlan[0].mac packetDropNotAddressedToUs:count 0
attr interpolationmode none
attr recordingmode count
attr source packetDropReasonIsNotAddressedToUs(packetDropped)
attr title "packet drops: not addressed to us, count"
scalar HandoverShowcase.ap2.wlan[0].mac packetDropNotAddressedToUs:sum(packetBytes) 0
attr interpolationmode none
attr recordingmode sum(packetBytes)
attr source packetDropReasonIsNotAddressedToUs(packetDropped)
attr title "packet drops: not addressed to us, sum(packetBytes)"
scalar HandoverShowcase.ap2.wlan[0].mac packetDropQueueOverflow:count 0
attr interpolationmode none
attr recordingmode count
attr source packetDropReasonIsQueueOverflow(packetDropped)
attr title "packet drops: queue overflow, count"
scalar HandoverShowcase.ap2.wlan[0].mac packetDropQueueOverflow:sum(packetBytes) 0
attr interpolationmode none
attr recordingmode sum(packetBytes)
attr source packetDropReasonIsQueueOverflow(packetDropped)
attr title "packet drops: queue overflow, sum(packetBytes)"
scalar HandoverShowcase.ap2.wlan[0].mac packetDropRetryLimitReached:count 0
attr interpolationmode none
attr recordingmode count
attr source packetDropReasonIsRetryLimitReached(packetDropped)
attr title "packet drops: retry limit reached, count"
scalar HandoverShowcase.ap2.wlan[0].mac packetDropRetryLimitReached:sum(packetBytes) 0
attr interpolationmode none
attr recordingmode sum(packetBytes)
attr source packetDropReasonIsRetryLimitReached(packetDropped)
attr title "packet drops: retry limit reached, sum(packetBytes)"
scalar HandoverShowcase.ap2.wlan[0].mac packetDropDuplicateDetected:count 0
attr interpolationmode none
attr recordingmode count
attr source packetDropReasonIsDuplicateDetected(packetDropped)
attr title "packet drops: duplicate detected, count"
scalar HandoverShowcase.ap2.wlan[0].mac packetDropDuplicateDetected:sum(packetBytes) 0
attr interpolationmode none
attr recordingmode sum(packetBytes)
attr source packetDropReasonIsDuplicateDetected(packetDropped)
attr title "packet drops: duplicate detected, sum(packetBytes)"
scalar HandoverShowcase.ap2.wlan[0].mac packetDropOther:count 0
attr interpolationmode none
attr recordingmode count
attr source packetDropReasonIsOther(packetDropped)
attr title "packet drops: other, count"
scalar HandoverShowcase.ap2.wlan[0].mac packetDropOther:sum(packetBytes) 0
attr interpolationmode none
attr recordingmode sum(packetBytes)
attr source packetDropReasonIsOther(packetDropped)
attr title "packet drops: other, sum(packetBytes)"
scalar HandoverShowcase.ap2.wlan[0].mac linkBroken:count 0
attr interpolationmode none
attr recordingmode count
attr title "link breaks, count"
par HandoverShowcase.ap2.wlan[0].radio.antenna typename "\"inet.physicallayer.wireless.common.antenna.IsotropicAntenna\""
par HandoverShowcase.ap2.wlan[0].radio.antenna mobilityModule "\"^.^.^.mobility\""
par HandoverShowcase.ap2.wlan[0].radio.antenna numAntennas 1
par HandoverShowcase.ap2.wlan[0].radio.transmitter typename "\"inet.physicallayer.wireless.ieee80211.packetlevel.Ieee80211ScalarTransmitter\""
par HandoverShowcase.ap2.wlan[0].radio.transmitter preambleDuration -1s
attr unit s
par HandoverShowcase.ap2.wlan[0].radio.transmitter headerLength 192b
attr unit b
par HandoverShowcase.ap2.wlan[0].radio.transmitter bitrate -1bps
attr unit bps
par HandoverShowcase.ap2.wlan[0].radio.transmitter power 0.002W
attr unit W
par HandoverShowcase.ap2.wlan[0].radio.transmitter centerFrequency 2.412e+09Hz
attr unit Hz
par HandoverShowcase.ap2.wlan[0].radio.transmitter bandwidth "nan Hz"
attr unit Hz
par HandoverShowcase.ap2.wlan[0].radio.transmitter codeRate 1
par HandoverShowcase.ap2.wlan[0].radio.transmitter modulation "\"BPSK\""
par HandoverShowcase.ap2.wlan[0].radio.transmitter opMode "\"g(mixed)\""
attr enum a,b,g(erp),g(mixed),n(mixed-2.4Ghz),p,ac
par HandoverShowcase.ap2.wlan[0].radio.transmitter bandName "\"2.4 GHz\""
attr enum "2.4 GHz,5 GHz,5 GHz (20 MHz),5 GHz (40 MHz),5 GHz (80 MHz),5 GHz (160 MHz),5.9 GHz"
par HandoverShowcase.ap2.wlan[0].radio.transmitter channelNumber 3
par HandoverShowcase.ap2.wlan[0].radio.receiver.errorModel typename "\"inet.physicallayer.wireless.ieee80211.packetlevel.errormodel.Ieee80211NistErrorModel\""
par HandoverShowcase.ap2.wlan[0].radio.receiver.errorModel corruptionMode "\"packet\""
attr enum packet,chunk,byte,bit
par HandoverShowcase.ap2.wlan[0].radio.receiver.errorModel snirMode "\"min\""
attr enum min,mean
par HandoverShowcase.ap2.wlan[0].radio.receiver.errorModel snirOffset 0dB
attr unit dB
par HandoverShowcase.ap2.wlan[0].radio.receiver typename "\"inet.physicallayer.wireless.ieee80211.packetlevel.Ieee80211ScalarReceiver\""
par HandoverShowcase.ap2.wlan[0].radio.receiver snirThreshold 4dB
attr unit dB
par HandoverShowcase.ap2.wlan[0].radio.receiver snirThresholdMode "\"min\""
attr enum min,mean
par HandoverShowcase.ap2.wlan[0].radio.receiver energyDetection -85dBm
attr unit dBm
par HandoverShowcase.ap2.wlan[0].radio.receiver sensitivity -85dBm
attr unit dBm
par HandoverShowcase.ap2.wlan[0].radio.receiver centerFrequency 2.412e+09Hz
attr unit Hz
par HandoverShowcase.ap2.wlan[0].radio.receiver bandwidth 2.2e+07Hz
attr unit Hz
par HandoverShowcase.ap2.wlan[0].radio.receiver modulation "\"BPSK\""
par HandoverShowcase.ap2.wlan[0].radio.receiver opMode "\"g(mixed)\""
attr enum a,b,g(erp),g(mixed),n(mixed-2.4Ghz),p,ac
par HandoverShowcase.ap2.wlan[0].radio.receiver bandName "\"2.4 GHz\""
attr enum "2.4 GHz,5 GHz,5 GHz (20 MHz),5 GHz (40 MHz),5 GHz (80 MHz),5 GHz (160 MHz),5.9 GHz"
par HandoverShowcase.ap2.wlan[0].radio.receiver channelNumber 3
par HandoverShowcase.ap2.wlan[0].radio typename "\"inet.physicallayer.wireless.ieee80211.packetlevel.Ieee80211ScalarRadio\""
par HandoverShowcase.ap2.wlan[0].radio radioMediumModule "\"radioMedium\""
par HandoverShowcase.ap2.wlan[0].radio energySourceModule "\"\""
par HandoverShowcase.ap2.wlan[0].radio initialRadioMode "\"off\""
attr enum off,sleep,receiver,transmitter,transceiver
par HandoverShowcase.ap2.wlan[0].radio switchingTimes "\"ms 0 0 0 0 0 0 0 0 0 0 0 0 0 0 0 0 0 0 0 0 0 0 0 0 0\""
par HandoverShowcase.ap2.wlan[0].radio sendRawBytes false
par HandoverShowcase.ap2.wlan[0].radio separateTransmissionParts false
par HandoverShowcase.ap2.wlan[0].radio separateReceptionParts false
par HandoverShowcase.ap2.wlan[0].radio displayCommunicationRange true
par HandoverShowcase.ap2.wlan[0].radio displayInterferenceRange false
par HandoverShowcase.ap2.wlan[0].radio centerFrequency 2.412e+09Hz
attr unit Hz
par HandoverShowcase.ap2.wlan[0].radio bandwidth "nan Hz"
attr unit Hz
par HandoverShowcase.ap2.wlan[0].radio signalAnalogRepresentation "\"scalar\""
attr enum scalar,dimensional
par HandoverShowcase.ap2.wlan[0].radio opMode "\"g(mixed)\""
attr enum a,b,g(erp),g(mixed),n(mixed-2.4Ghz),p,ac
par HandoverShowcase.ap2.wlan[0].radio bandName "\"2.4 GHz\""
attr enum "2.4 GHz,5 GHz,5 GHz (20 MHz),5 GHz (40 MHz),5 GHz (80 MHz),5 GHz (160 MHz),5.9 GHz"
par HandoverShowcase.ap2.wlan[0].radio channelNumber 3
par HandoverShowcase.ap2.wlan[0].radio crcMode "\"declared\""
attr enum declared,computed
statistic HandoverShowcase.ap2.wlan[0].radio radioChannel:histogram
field count 1
field mean 3
field stddev -nan
field min 3
field max 3
field sum 3
field sqrsum 9
attr interpolationmode sample-hold
attr recordingmode histogram
attr source radioChannelChanged
attr title "Radio channel"
bin	-inf	0
bin	2	0
bin	3	1
bin	4	0
scalar HandoverShowcase.ap2.wlan[0].radio radioMode:count 2017
attr interpolationmode sample-hold
attr recordingmode count
attr source radioModeChanged
attr title "Radio mode, count"
scalar HandoverShowcase.ap2.wlan[0].radio receptionState:count 2031
attr interpolationmode sample-hold
attr recordingmode count
attr source receptionStateChanged
attr title "Radio reception state, count"
scalar HandoverShowcase.ap2.wlan[0].radio transmissionState:count 4028
attr interpolationmode sample-hold
attr recordingmode count
attr source transmissionStateChanged
attr title "Radio transmission state, count"
statistic HandoverShowcase.ap2.wlan[0].radio minSnir:histogram
field count 8
field mean 729.53235705155
field stddev 20.197296581017
field min 696.79749681218
field max 740.50133002376
field sum 5836.2588564124
field sqrsum 4260595.1954058
attr recordingmode histogram
attr source minimumSnir(packetSentToUpper)
attr title "Min SNIR"
bin	-inf	0
bin	685	0
bin	686	0
bin	687	0
bin	688	0
bin	689	0
bin	690	0
bin	691	0
bin	692	0
bin	693	0
bin	694	0
bin	695	0
bin	696	2
bin	697	0
bin	698	0
bin	699	0
bin	700	0
bin	701	0
bin	702	0
bin	703	0
bin	704	0
bin	705	0
bin	706	0
bin	707	0
bin	708	0
bin	709	0
bin	710	0
bin	711	0
bin	712	0
bin	713	0
bin	714	0
bin	715	0
bin	716	0
bin	717	0
bin	718	0
bin	719	0
bin	720	0
bin	721	0
bin	722	0
bin	723	0
bin	724	0
bin	725	0
bin	726	0
bin	727	0
bin	728	0
bin	729	0
bin	730	0
bin	731	0
bin	732	0
bin	733	0
bin	734	0
bin	735	0
bin	736	0
bin	737	0
bin	738	0
bin	739	0
bin	740	6
bin	741	0
bin	742	0
bin	743	0
bin	744	0
bin	745	0
bin	746	0
bin	747	0
bin	748	0
bin	749	0
bin	750	0
bin	751	0
bin	752	0
statistic HandoverShowcase.ap2.wlan[0].radio packetErrorRate:histogram
field count 8
field mean 0
field stddev 0
field min 0
field max 0
field sum 0
field sqrsum 0
attr recordingmode histogram
attr source packetErrorRate(packetSentToUpper)
attr title "Packet error rate"
bin	-inf	0
bin	-0.5	0
bin	-0.48	0
bin	-0.46	0
bin	-0.44	0
bin	-0.42	0
bin	-0.4	0
bin	-0.38	0
bin	-0.36	0
bin	-0.34	0
bin	-0.32	0
bin	-0.3	0
bin	-0.28	0
bin	-0.26	0
bin	-0.24	0
bin	-0.22	0
bin	-0.2	0
bin	-0.18	0
bin	-0.16	0
bin	-0.14	0
bin	-0.12	0
bin	-0.1	0
bin	-0.08	0
bin	-0.06	0
bin	-0.04	0
bin	-0.02	0
bin	0	8
bin	0.02	0
bin	0.04	0
bin	0.06	0
bin	0.08	0
bin	0.1	0
bin	0.12	0
bin	0.14	0
bin	0.16	0
bin	0.18	0
bin	0.2	0
bin	0.22	0
bin	0.24	0
bin	0.26	0
bin	0.28	0
bin	0.3	0
bin	0.32	0
bin	0.34	0
bin	0.36	0
bin	0.38	0
bin	0.4	0
bin	0.42	0
bin	0.44	0
bin	0.46	0
bin	0.48	0
bin	0.5	0
statistic HandoverShowcase.ap2.wlan[0].radio bitErrorRate:histogram
field count 0
field mean -nan
field stddev -nan
field min -nan
field max -nan
field sum 0
field sqrsum 0
attr recordingmode histogram
attr source bitErrorRate(packetSentToUpper)
attr title "Bit error rate"
bin	-inf	0
bin	0	0
bin	1	0
statistic HandoverShowcase.ap2.wlan[0].radio symbolErrorRate:histogram
field count 0
field mean -nan
field stddev -nan
field min -nan
field max -nan
field sum 0
field sqrsum 0
attr recordingmode histogram
attr source symbolErrorRate(packetSentToUpper)
attr title "Symbol error rate"
bin	-inf	0
bin	0	0
bin	1	0
par HandoverShowcase.ap2.wlan[0] typename "\"inet.linklayer.ieee80211.Ieee80211Interface\""
par HandoverShowcase.ap2.wlan[0] displayStringTextFormat "\"%a (%i)\\n%m\""
par HandoverShowcase.ap2.wlan[0] recordPcap false
par HandoverShowcase.ap2.wlan[0] numPcapRecorders 0
par HandoverShowcase.ap2.wlan[0] interfaceTableModule "\"HandoverShowcase.ap2.interfaceTable\""
par HandoverShowcase.ap2.wlan[0] energySourceModule "\"\""
par HandoverShowcase.ap2.wlan[0] opMode "\"g(mixed)\""
attr enum a,b,g(erp),g(mixed),n(mixed-2.4Ghz),p,ac
par HandoverShowcase.ap2.wlan[0] address "\"0A-AA-00-00-00-04\""
attr mutable ""
par HandoverShowcase.ap2.wlan[0] protocol "\"ethernetmac\""
par HandoverShowcase.ap2.wlan[0] bitrate -1bps
attr unit bps
scalar HandoverShowcase.ap2.wlan[0] packetDropInterfaceDown:count 0
attr interpolationmode none
attr recordingmode count
attr source packetDropReasonIsInterfaceDown(packetDropped)
attr title "packet drops: interface down, count"
scalar HandoverShowcase.ap2.wlan[0] packetDropInterfaceDown:sum(packetBytes) 0
attr interpolationmode none
attr recordingmode sum(packetBytes)
attr source packetDropReasonIsInterfaceDown(packetDropped)
attr title "packet drops: interface down, sum(packetBytes)"
scalar HandoverShowcase.ap2.wlan[0] packetDropNoCarrier:count 0
attr interpolationmode none
attr recordingmode count
attr source packetDropReasonIsNoCarrier(packetDropped)
attr title "packet drops: no carrier, count"
scalar HandoverShowcase.ap2.wlan[0] packetDropNoCarrier:sum(packetBytes) 0
attr interpolationmode none
attr recordingmode sum(packetBytes)
attr source packetDropReasonIsNoCarrier(packetDropped)
attr title "packet drops: no carrier, sum(packetBytes)"
par HandoverShowcase.ap2 typename "\"inet.node.wireless.AccessPoint\""
par HandoverShowcase.ap2 numWlanInterfaces 1
par HandoverShowcase.ap2 hasStatus false
par HandoverShowcase.ap2 fcsMode "\"declared\""
attr enum declared,computed
par HandoverShowcase typename "\"inet.showcases.wireless.handover.HandoverShowcase\""

